

        *** GPGPU-Sim Simulator Version 4.0.0  [build gpgpu-sim_git-commit-b1fdc6da937e638fc1cf735829613f1037bbbf1a_modified_0.0] ***


GPGPU-Sim PTX: simulation mode 0 (can change with PTX_SIM_MODE_FUNC environment variable:
               1=functional simulation only, 0=detailed performance simulator)
GPGPU-Sim PTX: overriding embedded ptx with ptx file (PTX_SIM_USE_PTX_FILE is set)
GPGPU-Sim: Configuration options:

-save_embedded_ptx                      0 # saves ptx files embedded in binary as <n>.ptx
-keep                                   0 # keep intermediate files created by GPGPU-Sim when interfacing with external programs
-gpgpu_ptx_save_converted_ptxplus                    0 # Saved converted ptxplus to a file
-gpgpu_occupancy_sm_number                   62 # The SM number to pass to ptxas when getting register usage for computing GPU occupancy. This parameter is required in the config.
-ptx_opcode_latency_int      4,13,4,5,145,32 # Opcode latencies for integers <ADD,MAX,MUL,MAD,DIV,SHFL>Default 1,1,19,25,145,32
-ptx_opcode_latency_fp          4,13,4,5,39 # Opcode latencies for single precision floating points <ADD,MAX,MUL,MAD,DIV>Default 1,1,1,1,30
-ptx_opcode_latency_dp         8,19,8,8,330 # Opcode latencies for double precision floating points <ADD,MAX,MUL,MAD,DIV>Default 8,8,8,8,335
-ptx_opcode_latency_sfu                    8 # Opcode latencies for SFU instructionsDefault 8
-ptx_opcode_latency_tesnor                   64 # Opcode latencies for Tensor instructionsDefault 64
-ptx_opcode_initiation_int          1,1,1,1,4,4 # Opcode initiation intervals for integers <ADD,MAX,MUL,MAD,DIV,SHFL>Default 1,1,4,4,32,4
-ptx_opcode_initiation_fp            1,2,1,1,4 # Opcode initiation intervals for single precision floating points <ADD,MAX,MUL,MAD,DIV>Default 1,1,1,1,5
-ptx_opcode_initiation_dp          8,8,8,8,130 # Opcode initiation intervals for double precision floating points <ADD,MAX,MUL,MAD,DIV>Default 8,8,8,8,130
-ptx_opcode_initiation_sfu                    4 # Opcode initiation intervals for sfu instructionsDefault 8
-ptx_opcode_initiation_tensor                   64 # Opcode initiation intervals for tensor instructionsDefault 64
-cdp_latency         7200,8000,100,12000,1600 # CDP API latency <cudaStreamCreateWithFlags, cudaGetParameterBufferV2_init_perWarp, cudaGetParameterBufferV2_perKernel, cudaLaunchDeviceV2_init_perWarp, cudaLaunchDevicV2_perKernel>Default 7200,8000,100,12000,1600
-network_mode                           1 # Interconnection network mode
-inter_config_file   config_pascal_islip.icnt # Interconnection network config file
-inct_in_buffer_limit                   64 # in_buffer_limit
-inct_out_buffer_limit                   64 # out_buffer_limit
-inct_subnets                           2 # subnets
-arbiter_algo                           1 # arbiter_algo
-gpgpu_ptx_use_cuobjdump                    1 # Use cuobjdump to extract ptx and sass from binaries
-gpgpu_experimental_lib_support                    0 # Try to extract code from cuda libraries [Broken because of unknown cudaGetExportTable]
-checkpoint_option                      0 #  checkpointing flag (0 = no checkpoint)
-checkpoint_kernel                      1 #  checkpointing during execution of which kernel (1- 1st kernel)
-checkpoint_CTA                         0 #  checkpointing after # of CTA (< less than total CTA)
-resume_option                          0 #  resume flag (0 = no resume)
-resume_kernel                          0 #  Resume from which kernel (1= 1st kernel)
-resume_CTA                             0 #  resume from which CTA 
-checkpoint_CTA_t                       0 #  resume from which CTA 
-checkpoint_insn_Y                      0 #  resume from which CTA 
-gpgpu_ptx_convert_to_ptxplus                    0 # Convert SASS (native ISA) to ptxplus and run ptxplus
-gpgpu_ptx_force_max_capability                   61 # Force maximum compute capability
-gpgpu_ptx_inst_debug_to_file                    0 # Dump executed instructions' debug information to file
-gpgpu_ptx_inst_debug_file       inst_debug.txt # Executed instructions' debug output file
-gpgpu_ptx_inst_debug_thread_uid                    1 # Thread UID for executed instructions' debug output
-gpgpu_simd_model                       1 # 1 = post-dominator
-gpgpu_shader_core_pipeline              1024:32 # shader core pipeline config, i.e., {<nthread>:<warpsize>}
-gpgpu_tex_cache:l1  N:16:128:24,L:R:m:N:L,T:128:4,128:2 # per-shader L1 texture cache  (READ-ONLY) config  {<nsets>:<bsize>:<assoc>,<rep>:<wr>:<alloc>:<wr_alloc>,<mshr>:<N>:<merge>,<mq>:<rf>}
-gpgpu_const_cache:l1 N:128:64:2,L:R:f:N:L,S:2:64,4 # per-shader L1 constant memory cache  (READ-ONLY) config  {<nsets>:<bsize>:<assoc>,<rep>:<wr>:<alloc>:<wr_alloc>,<mshr>:<N>:<merge>,<mq>} 
-gpgpu_cache:il1     N:8:128:4,L:R:f:N:L,S:2:48,4 # shader L1 instruction cache config  {<nsets>:<bsize>:<assoc>,<rep>:<wr>:<alloc>:<wr_alloc>,<mshr>:<N>:<merge>,<mq>} 
-gpgpu_cache:dl1     S:4:128:48,L:L:s:N:L,A:256:8,16:0,32 # per-shader L1 data cache config  {<nsets>:<bsize>:<assoc>,<rep>:<wr>:<alloc>:<wr_alloc>,<mshr>:<N>:<merge>,<mq> | none}
-l1_banks                               1 # The number of L1 cache banks
-l1_latency                            82 # L1 Hit Latency
-smem_latency                          24 # smem Latency
-gpgpu_cache:dl1PrefL1 S:4:128:48,L:L:s:N:L,A:256:8,16:0,32 # per-shader L1 data cache config  {<nsets>:<bsize>:<assoc>,<rep>:<wr>:<alloc>:<wr_alloc>,<mshr>:<N>:<merge>,<mq> | none}
-gpgpu_cache:dl1PrefShared S:4:128:48,L:L:s:N:L,A:256:8,16:0,32 # per-shader L1 data cache config  {<nsets>:<bsize>:<assoc>,<rep>:<wr>:<alloc>:<wr_alloc>,<mshr>:<N>:<merge>,<mq> | none}
-gmem_skip_L1D                          1 # global memory access skip L1D cache (implements -Xptxas -dlcm=cg, default=no skip)
-gpgpu_perfect_mem                      0 # enable perfect memory mode (no cache miss)
-n_regfile_gating_group                    4 # group of lanes that should be read/written together)
-gpgpu_clock_gated_reg_file                    0 # enable clock gated reg file for power calculations
-gpgpu_clock_gated_lanes                    0 # enable clock gated lanes for power calculations
-gpgpu_shader_registers                32768 # Number of registers per shader core. Limits number of concurrent CTAs. (default 8192)
-gpgpu_registers_per_block                 8192 # Maximum number of registers per CTA. (default 8192)
-gpgpu_ignore_resources_limitation                    1 # gpgpu_ignore_resources_limitation (default 0)
-gpgpu_shader_cta                      16 # Maximum number of concurrent CTAs in shader (default 8)
-gpgpu_num_cta_barriers                   16 # Maximum number of named barriers per CTA (default 16)
-gpgpu_n_clusters                      28 # number of processing clusters
-gpgpu_n_cores_per_cluster                    2 # number of simd cores per cluster
-gpgpu_n_cluster_ejection_buffer_size                   32 # number of packets in ejection buffer
-gpgpu_n_ldst_response_buffer_size                    2 # number of response packets in ld/st unit ejection buffer
-gpgpu_shmem_per_block                49152 # Size of shared memory per thread block or CTA (default 48kB)
-gpgpu_shmem_size                   49152 # Size of shared memory per shader core (default 16kB)
-adaptive_cache_config                    0 # adaptive_cache_config
-gpgpu_shmem_sizeDefault                49152 # Size of shared memory per shader core (default 16kB)
-gpgpu_shmem_size_PrefL1                49152 # Size of shared memory per shader core (default 16kB)
-gpgpu_shmem_size_PrefShared                49152 # Size of shared memory per shader core (default 16kB)
-gpgpu_shmem_num_banks                   32 # Number of banks in the shared memory in each shader core (default 16)
-gpgpu_shmem_limited_broadcast                    0 # Limit shared memory to do one broadcast per cycle (default on)
-gpgpu_shmem_warp_parts                    1 # Number of portions a warp is divided into for shared memory bank conflict check 
-mem_unit_ports                         1 # The number of memory transactions allowed per core cycle
-gpgpu_shmem_warp_parts                    1 # Number of portions a warp is divided into for shared memory bank conflict check 
-gpgpu_warpdistro_shader                   -1 # Specify which shader core to collect the warp size distribution from
-gpgpu_warp_issue_shader                    0 # Specify which shader core to collect the warp issue distribution from
-gpgpu_local_mem_map                    1 # Mapping from local memory space address to simulated GPU physical address space (default = enabled)
-gpgpu_num_reg_banks                   32 # Number of register banks (default = 8)
-gpgpu_reg_bank_use_warp_id                    0 # Use warp ID in mapping registers to banks (default = off)
-sub_core_model                         0 # Sub Core Volta/Pascal model (default = off)
-enable_specialized_operand_collector                    1 # enable_specialized_operand_collector
-gpgpu_operand_collector_num_units_sp                   12 # number of collector units (default = 4)
-gpgpu_operand_collector_num_units_dp                    6 # number of collector units (default = 0)
-gpgpu_operand_collector_num_units_sfu                    6 # number of collector units (default = 4)
-gpgpu_operand_collector_num_units_int                    0 # number of collector units (default = 0)
-gpgpu_operand_collector_num_units_tensor_core                    4 # number of collector units (default = 4)
-gpgpu_operand_collector_num_units_mem                    8 # number of collector units (default = 2)
-gpgpu_operand_collector_num_units_gen                    0 # number of collector units (default = 0)
-gpgpu_operand_collector_num_in_ports_sp                    2 # number of collector unit in ports (default = 1)
-gpgpu_operand_collector_num_in_ports_dp                    1 # number of collector unit in ports (default = 0)
-gpgpu_operand_collector_num_in_ports_sfu                    2 # number of collector unit in ports (default = 1)
-gpgpu_operand_collector_num_in_ports_int                    0 # number of collector unit in ports (default = 0)
-gpgpu_operand_collector_num_in_ports_tensor_core                    1 # number of collector unit in ports (default = 1)
-gpgpu_operand_collector_num_in_ports_mem                    1 # number of collector unit in ports (default = 1)
-gpgpu_operand_collector_num_in_ports_gen                    0 # number of collector unit in ports (default = 0)
-gpgpu_operand_collector_num_out_ports_sp                    2 # number of collector unit in ports (default = 1)
-gpgpu_operand_collector_num_out_ports_dp                    1 # number of collector unit in ports (default = 0)
-gpgpu_operand_collector_num_out_ports_sfu                    2 # number of collector unit in ports (default = 1)
-gpgpu_operand_collector_num_out_ports_int                    0 # number of collector unit in ports (default = 0)
-gpgpu_operand_collector_num_out_ports_tensor_core                    1 # number of collector unit in ports (default = 1)
-gpgpu_operand_collector_num_out_ports_mem                    1 # number of collector unit in ports (default = 1)
-gpgpu_operand_collector_num_out_ports_gen                    0 # number of collector unit in ports (default = 0)
-gpgpu_coalesce_arch                   61 # Coalescing arch (GT200 = 13, Fermi = 20)
-gpgpu_num_sched_per_core                    2 # Number of warp schedulers per core
-gpgpu_max_insn_issue_per_warp                    2 # Max number of instructions that can be issued per warp in one cycle by scheduler (either 1 or 2)
-gpgpu_dual_issue_diff_exec_units                    1 # should dual issue use two different execution unit resources (Default = 1)
-gpgpu_simt_core_sim_order                    1 # Select the simulation order of cores in a cluster (0=Fix, 1=Round-Robin)
-gpgpu_pipeline_widths 2,1,0,2,1,2,1,0,2,1,5 # Pipeline widths ID_OC_SP,ID_OC_DP,ID_OC_INT,ID_OC_SFU,ID_OC_MEM,OC_EX_SP,OC_EX_DP,OC_EX_INT,OC_EX_SFU,OC_EX_MEM,EX_WB,ID_OC_TENSOR_CORE,OC_EX_TENSOR_CORE
-gpgpu_tensor_core_avail                    0 # Tensor Core Available (default=0)
-gpgpu_num_sp_units                     2 # Number of SP units (default=1)
-gpgpu_num_dp_units                     1 # Number of DP units (default=0)
-gpgpu_num_int_units                    0 # Number of INT units (default=0)
-gpgpu_num_sfu_units                    2 # Number of SF units (default=1)
-gpgpu_num_tensor_core_units                    1 # Number of tensor_core units (default=1)
-gpgpu_num_mem_units                    1 # Number if ldst units (default=1) WARNING: not hooked up to anything
-gpgpu_scheduler                      gto # Scheduler configuration: < lrr | gto | two_level_active > If two_level_active:<num_active_warps>:<inner_prioritization>:<outer_prioritization>For complete list of prioritization values see shader.h enum scheduler_prioritization_typeDefault: gto
-gpgpu_concurrent_kernel_sm                    0 # Support concurrent kernels on a SM (default = disabled)
-perf_sim_memcpy                        1 # Fill the L2 cache on memcpy
-simple_dram_model                      0 # simple_dram_model with fixed latency and BW
-gpgpu_dram_scheduler                    1 # 0 = fifo, 1 = FR-FCFS (defaul)
-gpgpu_dram_partition_queues          32:32:32:32 # i2$:$2d:d2$:$2i
-l2_ideal                               0 # Use a ideal L2 cache that always hit
-gpgpu_cache:dl2     S:64:128:16,L:B:m:L:L,A:256:64,16:0,32 # unified banked L2 data cache config  {<nsets>:<bsize>:<assoc>,<rep>:<wr>:<alloc>:<wr_alloc>,<mshr>:<N>:<merge>,<mq>}
-gpgpu_cache:dl2_texture_only                    0 # L2 cache used for texture only
-gpgpu_n_mem                           12 # number of memory modules (e.g. memory controllers) in gpu
-gpgpu_n_sub_partition_per_mchannel                    2 # number of memory subpartition in each memory module
-gpgpu_n_mem_per_ctrlr                    1 # number of memory chips per memory controller
-gpgpu_memlatency_stat                   14 # track and display latency statistics 0x2 enables MC, 0x4 enables queue logs
-gpgpu_frfcfs_dram_sched_queue_size                   64 # 0 = unlimited (default); # entries per chip
-gpgpu_dram_return_queue_size                   64 # 0 = unlimited (default); # entries per chip
-gpgpu_dram_buswidth                    4 # default = 4 bytes (8 bytes per cycle at DDR)
-gpgpu_dram_burst_length                    8 # Burst length of each DRAM request (default = 4 data bus cycle)
-dram_data_command_freq_ratio                    4 # Frequency ratio between DRAM data bus and command bus (default = 2 times, i.e. DDR)
-gpgpu_dram_timing_opt nbk=16:CCD=2:RRD=8:RCD=16:RAS=37:RP=16:RC=52: CL=16:WL=6:CDLR=7:WR=16:nbkgrp=4:CCDL=4:RTPL=3 # DRAM timing parameters = {nbk:tCCD:tRRD:tRCD:tRAS:tRP:tRC:CL:WL:tCDLR:tWR:nbkgrp:tCCDL:tRTPL}
-rop_latency                          120 # ROP queue latency (default 85)
-dram_latency                         100 # DRAM latency (default 30)
-dual_bus_interface                     0 # dual_bus_interface (default = 0) 
-dram_bnk_indexing_policy                    0 # dram_bnk_indexing_policy (0 = normal indexing, 1 = Xoring with the higher bits) (Default = 0)
-dram_bnkgrp_indexing_policy                    1 # dram_bnkgrp_indexing_policy (0 = take higher bits, 1 = take lower bits) (Default = 0)
-Seperate_Write_Queue_Enable                    0 # Seperate_Write_Queue_Enable
-Write_Queue_Size                32:28:16 # Write_Queue_Size
-Elimnate_rw_turnaround                    0 # elimnate_rw_turnaround i.e set tWTR and tRTW = 0
-icnt_flit_size                        40 # icnt_flit_size
-gpgpu_mem_addr_mapping dramid@8;00000000.00000000.00000000.00000000.0000RRRR.RRRRRRRR.RBBBCCCC.BCCSSSSS # mapping memory address to dram model {dramid@<start bit>;<memory address map>}
-gpgpu_mem_addr_test                    0 # run sweep test to check address mapping for aliased address
-gpgpu_mem_address_mask                    1 # 0 = old addressing mask, 1 = new addressing mask, 2 = new add. mask + flipped bank sel and chip sel bits
-memory_partition_indexing                    0 # 0 = no indexing, 1 = bitwise xoring, 2 = IPoly, 3 = custom indexing
-gpuwattch_xml_file         gpuwattch.xml # GPUWattch XML file
-power_simulation_enabled                    0 # Turn on power simulator (1=On, 0=Off)
-power_per_cycle_dump                    0 # Dump detailed power output each cycle
-power_trace_enabled                    0 # produce a file for the power trace (1=On, 0=Off)
-power_trace_zlevel                     6 # Compression level of the power trace output log (0=no comp, 9=highest)
-steady_power_levels_enabled                    0 # produce a file for the steady power levels (1=On, 0=Off)
-steady_state_definition                  8:4 # allowed deviation:number of samples
-gpgpu_max_cycle                        0 # terminates gpu simulation early (0 = no limit)
-gpgpu_max_insn                         0 # terminates gpu simulation early (0 = no limit)
-gpgpu_max_cta                          0 # terminates gpu simulation early (0 = no limit)
-gpgpu_max_completed_cta                    0 # terminates gpu simulation early (0 = no limit)
-gpgpu_runtime_stat                   500 # display runtime statistics such as dram utilization {<freq>:<flag>}
-liveness_message_freq                    1 # Minimum number of seconds between simulation liveness messages (0 = always print)
-gpgpu_compute_capability_major                    6 # Major compute capability version number
-gpgpu_compute_capability_minor                    1 # Minor compute capability version number
-gpgpu_flush_l1_cache                    1 # Flush L1 cache at the end of each kernel call
-gpgpu_flush_l2_cache                    0 # Flush L2 cache at the end of each kernel call
-gpgpu_deadlock_detect                    1 # Stop the simulation at deadlock (1=on (default), 0=off)
-gpgpu_ptx_instruction_classification                    0 # if enabled will classify ptx instruction types per kernel (Max 255 kernels now)
-gpgpu_ptx_sim_mode                     0 # Select between Performance (default) or Functional simulation (1)
-gpgpu_clock_domains 1417.0:1417.0:1417.0:2500.0 # Clock Domain Frequencies in MhZ {<Core Clock>:<ICNT Clock>:<L2 Clock>:<DRAM Clock>}
-gpgpu_max_concurrent_kernel                    8 # maximum kernels that can run concurrently on GPU
-gpgpu_cflog_interval                    0 # Interval between each snapshot in control flow logger
-visualizer_enabled                     0 # Turn on visualizer output (1=On, 0=Off)
-visualizer_outputfile                 NULL # Specifies the output log file for visualizer
-visualizer_zlevel                      6 # Compression level of the visualizer output log (0=no comp, 9=highest)
-gpgpu_stack_size_limit                 1024 # GPU thread stack size
-gpgpu_heap_size_limit              8388608 # GPU malloc heap size 
-gpgpu_runtime_sync_depth_limit                    2 # GPU device runtime synchronize depth
-gpgpu_runtime_pending_launch_count_limit                 2048 # GPU device runtime pending launch count
-trace_enabled                          0 # Turn on traces
-trace_components                    none # comma seperated list of traces to enable. Complete list found in trace_streams.tup. Default none
-trace_sampling_core                    0 # The core which is printed using CORE_DPRINTF. Default 0
-trace_sampling_memory_partition                   -1 # The memory partition which is printed using MEMPART_DPRINTF. Default -1 (i.e. all)
-enable_ptx_file_line_stats                    1 # Turn on PTX source line statistic profiling. (1 = On)
-ptx_line_stats_filename gpgpu_inst_stats.txt # Output file for PTX source line statistics.
-gpgpu_kernel_launch_latency                    0 # Kernel launch latency in cycles. Default: 0
-gpgpu_cdp_enabled                      0 # Turn on CDP
DRAM Timing Options:
nbk                                    16 # number of banks
CCD                                     2 # column to column delay
RRD                                     8 # minimal delay between activation of rows in different banks
RCD                                    16 # row to column delay
RAS                                    37 # time needed to activate row
RP                                     16 # time needed to precharge (deactivate) row
RC                                     52 # row cycle time
CDLR                                    7 # switching from write to read (changes tWTR)
WR                                     16 # last data-in to row precharge
CL                                     16 # CAS latency
WL                                      6 # Write latency
nbkgrp                                  4 # number of bank groups
CCDL                                    4 # column to column delay between accesses to different bank groups
RTPL                                    3 # read to precharge delay between accesses to different bank groups
Total number of memory sub partition = 24
addr_dec_mask[CHIP]  = 0000000000000000 	high:64 low:0
addr_dec_mask[BK]    = 0000000000007080 	high:15 low:7
addr_dec_mask[ROW]   = 000000000fff8000 	high:28 low:15
addr_dec_mask[COL]   = 0000000000000f7f 	high:12 low:0
addr_dec_mask[BURST] = 000000000000001f 	high:5 low:0
sub_partition_id_mask = 0000000000000080
GPGPU-Sim uArch: clock freqs: 1417000000.000000:1417000000.000000:1417000000.000000:2500000000.000000
GPGPU-Sim uArch: clock periods: 0.00000000070571630205:0.00000000070571630205:0.00000000070571630205:0.00000000040000000000
*** Initializing Memory Statistics ***
GPGPU-Sim uArch: interconnect node map (shaderID+MemID to icntID)
GPGPU-Sim uArch: Memory nodes ID start from index: 28
GPGPU-Sim uArch:    0   1   2   3   4   5   6
GPGPU-Sim uArch:    7   8   9  10  11  12  13
GPGPU-Sim uArch:   14  15  16  17  18  19  20
GPGPU-Sim uArch:   21  22  23  24  25  26  27
GPGPU-Sim uArch:   28  29  30  31  32  33  34
GPGPU-Sim uArch:   35  36  37  38  39  40  41
GPGPU-Sim uArch:   42  43  44  45  46  47  48
GPGPU-Sim uArch:   49  50  51
GPGPU-Sim uArch: interconnect node reverse map (icntID to shaderID+MemID)
GPGPU-Sim uArch: Memory nodes start from ID: 28
GPGPU-Sim uArch:    0   1   2   3   4   5   6
GPGPU-Sim uArch:    7   8   9  10  11  12  13
GPGPU-Sim uArch:   14  15  16  17  18  19  20
GPGPU-Sim uArch:   21  22  23  24  25  26  27
GPGPU-Sim uArch:   28  29  30  31  32  33  34
GPGPU-Sim uArch:   35  36  37  38  39  40  41
GPGPU-Sim uArch:   42  43  44  45  46  47  48
GPGPU-Sim uArch:   49  50  51
919b54e09cfe9b1426fe8c6a2fb3c5e6  /home/ee557/Desktop/p4/cutlass-gpgpu-sim/cutlass-test
Extracting PTX file and ptxas options    1: cutlass-test.1.sm_70.ptx -arch=sm_70
GPGPU-Sim uArch: performance model initialization complete.
self exe links to: /home/ee557/Desktop/p4/cutlass-gpgpu-sim/cutlass-test
self exe links to: /home/ee557/Desktop/p4/cutlass-gpgpu-sim/cutlass-test
9.1
GPGPU-Sim PTX: __cudaRegisterFatBinary, fat_cubin_handle = 1, filename=default
self exe links to: /home/ee557/Desktop/p4/cutlass-gpgpu-sim/cutlass-test
Running md5sum using "md5sum /home/ee557/Desktop/p4/cutlass-gpgpu-sim/cutlass-test "
self exe links to: /home/ee557/Desktop/p4/cutlass-gpgpu-sim/cutlass-test
Extracting specific PTX file named cutlass-test.1.sm_70.ptx 
GPGPU-Sim PTX: __cudaRegisterFunction _ZN7cutlass4gemm11gemm_kernelINS0_4GemmINS0_14WmmaGemmTraitsILNS_12MatrixLayout4KindE0ELS5_0ENS_5ShapeILi32ELi16ELi16ELi1EEEfNS0_13LinearScalingIfNS0_19FragmentMultiplyAddIfEEEEfS7_NS6_ILi16ELi16ELi16ELi1EEELi8ELi8EiNS0_20WmmaGemmTraitsHelperILS5_0ELS5_0ES7_ffSB_S7_SC_Li8ELi8EiEEEEEEEEvNT_6ParamsE : hostFun 0x0x40313a, fat_cubin_handle = 1
GPGPU-Sim PTX: Parsing cutlass-test.1.sm_70.ptx
GPGPU-Sim PTX: allocating stack frame region for .param "__assertfail_param_0" from 0x0 to 0x8
GPGPU-Sim PTX: allocating stack frame region for .param "__assertfail_param_1" from 0x8 to 0x10
GPGPU-Sim PTX: allocating stack frame region for .param "__assertfail_param_2" from 0x10 to 0x14
GPGPU-Sim PTX: allocating stack frame region for .param "__assertfail_param_3" from 0x14 to 0x1c
GPGPU-Sim PTX: allocating stack frame region for .param "__assertfail_param_4" from 0x1c to 0x24
GPGPU-Sim PTX: allocating global region for "__unnamed_1" from 0x100 to 0x18f (global memory space)
GPGPU-Sim PTX: allocating global region for "__unnamed_2" from 0x200 to 0x28f (global memory space)
GPGPU-Sim PTX: allocating global region for "__unnamed_3" from 0x300 to 0x38e (global memory space)
GPGPU-Sim PTX: allocating global region for "$str" from 0x400 to 0x40f (global memory space)
GPGPU-Sim PTX: allocating global region for "$str1" from 0x480 to 0x495 (global memory space)
GPGPU-Sim PTX: allocating shared region for "_ZN7cutlass4gemm11gemm_kernelINS0_4GemmINS0_14WmmaGemmTraitsILNS_12MatrixLayout4KindE0ELS5_0ENS_5ShapeILi32ELi16ELi16ELi1EEEfNS0_13LinearScalingIfNS0_19FragmentMultiplyAddIfEEEEfS7_NS6_ILi16ELi16ELi16ELi1EEELi8ELi8EiNS0_20WmmaGemmTraitsHelperILS5_0ELS5_0ES7_ffSB_S7_SC_Li8ELi8EiEEEEEEEEvNT_6ParamsE$__cuda_local_var_31507_57_non_const_shared_storage" from 0x0 to 0xb10 (shared memory space)
GPGPU-Sim PTX: allocating stack frame region for .param "param0" from 0x0 to 0x8
GPGPU-Sim PTX: allocating stack frame region for .param "param1" from 0x8 to 0x10
GPGPU-Sim PTX: allocating stack frame region for .param "param2" from 0x10 to 0x14
GPGPU-Sim PTX: allocating stack frame region for .param "param3" from 0x14 to 0x1c
GPGPU-Sim PTX: allocating stack frame region for .param "param4" from 0x1c to 0x24
GPGPU-Sim PTX: allocating stack frame region for .param "param0" from 0x24 to 0x2c
GPGPU-Sim PTX: allocating stack frame region for .param "param1" from 0x2c to 0x34
GPGPU-Sim PTX: allocating stack frame region for .param "param2" from 0x34 to 0x38
GPGPU-Sim PTX: allocating stack frame region for .param "param3" from 0x38 to 0x40
GPGPU-Sim PTX: allocating stack frame region for .param "param4" from 0x40 to 0x48
GPGPU-Sim PTX: allocating stack frame region for .param "param0" from 0x48 to 0x50
GPGPU-Sim PTX: allocating stack frame region for .param "param1" from 0x50 to 0x58
GPGPU-Sim PTX: allocating stack frame region for .param "param2" from 0x58 to 0x5c
GPGPU-Sim PTX: allocating stack frame region for .param "param3" from 0x5c to 0x64
GPGPU-Sim PTX: allocating stack frame region for .param "param4" from 0x64 to 0x6c
GPGPU-Sim PTX: allocating stack frame region for .param "param0" from 0x6c to 0x74
GPGPU-Sim PTX: allocating stack frame region for .param "param1" from 0x74 to 0x7c
GPGPU-Sim PTX: allocating stack frame region for .param "param2" from 0x7c to 0x80
GPGPU-Sim PTX: allocating stack frame region for .param "param3" from 0x80 to 0x88
GPGPU-Sim PTX: allocating stack frame region for .param "param4" from 0x88 to 0x90
GPGPU-Sim PTX: allocating stack frame region for .param "param0" from 0x90 to 0x98
GPGPU-Sim PTX: allocating stack frame region for .param "param1" from 0x98 to 0xa0
GPGPU-Sim PTX: allocating stack frame region for .param "param2" from 0xa0 to 0xa4
GPGPU-Sim PTX: allocating stack frame region for .param "param3" from 0xa4 to 0xac
GPGPU-Sim PTX: allocating stack frame region for .param "param4" from 0xac to 0xb4
GPGPU-Sim PTX: allocating stack frame region for .param "param0" from 0xb4 to 0xbc
GPGPU-Sim PTX: allocating stack frame region for .param "param1" from 0xbc to 0xc4
GPGPU-Sim PTX: allocating stack frame region for .param "param2" from 0xc4 to 0xc8
GPGPU-Sim PTX: allocating stack frame region for .param "param3" from 0xc8 to 0xd0
GPGPU-Sim PTX: allocating stack frame region for .param "param4" from 0xd0 to 0xd8
GPGPU-Sim PTX: allocating stack frame region for .param "param0" from 0xd8 to 0xe0
GPGPU-Sim PTX: allocating stack frame region for .param "param1" from 0xe0 to 0xe8
GPGPU-Sim PTX: allocating stack frame region for .param "param2" from 0xe8 to 0xec
GPGPU-Sim PTX: allocating stack frame region for .param "param3" from 0xec to 0xf4
GPGPU-Sim PTX: allocating stack frame region for .param "param4" from 0xf4 to 0xfc
GPGPU-Sim PTX: instruction assembly for function '_ZN7cutlass4gemm11gemm_kernelINS0_4GemmINS0_14WmmaGemmTraitsILNS_12MatrixLayout4KindE0ELS5_0ENS_5ShapeILi32ELi16ELi16ELi1EEEfNS0_13LinearScalingIfNS0_19FragmentMultiplyAddIfEEEEfS7_NS6_ILi16ELi16ELi16ELi1EEELi8ELi8EiNS0_20WmmaGemmTraitsHelperILS5_0ELS5_0ES7_ffSB_S7_SC_Li8ELi8EiEEEEEEEEvNT_6ParamsE'...   done.
GPGPU-Sim PTX: finished parsing EMBEDDED .ptx file cutlass-test.1.sm_70.ptx
GPGPU-Sim PTX: loading globals with explicit initializers... 
GPGPU-Sim PTX:     initializing '__unnamed_1' ...  wrote 143 bytes
GPGPU-Sim PTX:     initializing '__unnamed_2' ...  wrote 143 bytes
GPGPU-Sim PTX:     initializing '__unnamed_3' ...  wrote 142 bytes
GPGPU-Sim PTX:     initializing '$str' ...  wrote 15 bytes
GPGPU-Sim PTX:     initializing '$str1' ...  wrote 21 bytes
GPGPU-Sim PTX: finished loading globals (464 bytes total).
GPGPU-Sim PTX: loading constants with explicit initializers...  done.
GPGPU-Sim PTX: Loading PTXInfo from cutlass-test.1.sm_70.ptx
GPGPU-Sim PTX: Kernel '_ZN7cutlass4gemm11gemm_kernelINS0_4GemmINS0_14WmmaGemmTraitsILNS_12MatrixLayout4KindE0ELS5_0ENS_5ShapeILi32ELi16ELi16ELi1EEEfNS0_13LinearScalingIfNS0_19FragmentMultiplyAddIfEEEEfS7_NS6_ILi16ELi16ELi16ELi1EEELi8ELi8EiNS0_20WmmaGemmTraitsHelperILS5_0ELS5_0ES7_ffSB_S7_SC_Li8ELi8EiEEEEEEEEvNT_6ParamsE' : regs=84, lmem=0, smem=2832, cmem=784
self exe links to: /home/ee557/Desktop/p4/cutlass-gpgpu-sim/cutlass-test
self exe links to: /home/ee557/Desktop/p4/cutlass-gpgpu-sim/cutlass-test
9.1
GPGPU-Sim PTX: __cudaRegisterFatBinary, fat_cubin_handle = 2, filename=default
GPGPU-Sim PTX: __cudaRegisterFunction __nv_static_51__38_cuda_device_runtime_compute_70_cpp1_ii_8b1a5d37__Z16memcpy_3d_deviceImLi1ELi1ELi1EEvPKhPhT_S3_S3_S3_S3_S3_S3_jjjjjjjjS3_S1_S2_ : hostFun 0x0x40a8e0, fat_cubin_handle = 2
Warning: cannot find deviceFun __nv_static_51__38_cuda_device_runtime_compute_70_cpp1_ii_8b1a5d37__Z16memcpy_3d_deviceImLi1ELi1ELi1EEvPKhPhT_S3_S3_S3_S3_S3_S3_jjjjjjjjS3_S1_S2_
GPGPU-Sim PTX: __cudaRegisterFunction __nv_static_51__38_cuda_device_runtime_compute_70_cpp1_ii_8b1a5d37__Z16memcpy_3d_deviceImLi1ELi1ELi0EEvPKhPhT_S3_S3_S3_S3_S3_S3_jjjjjjjjS3_S1_S2_ : hostFun 0x0x40ab70, fat_cubin_handle = 2
Warning: cannot find deviceFun __nv_static_51__38_cuda_device_runtime_compute_70_cpp1_ii_8b1a5d37__Z16memcpy_3d_deviceImLi1ELi1ELi0EEvPKhPhT_S3_S3_S3_S3_S3_S3_jjjjjjjjS3_S1_S2_
GPGPU-Sim PTX: __cudaRegisterFunction __nv_static_51__38_cuda_device_runtime_compute_70_cpp1_ii_8b1a5d37__Z16memcpy_3d_deviceImLi1ELi0ELi1EEvPKhPhT_S3_S3_S3_S3_S3_S3_jjjjjjjjS3_S1_S2_ : hostFun 0x0x40ae00, fat_cubin_handle = 2
Warning: cannot find deviceFun __nv_static_51__38_cuda_device_runtime_compute_70_cpp1_ii_8b1a5d37__Z16memcpy_3d_deviceImLi1ELi0ELi1EEvPKhPhT_S3_S3_S3_S3_S3_S3_jjjjjjjjS3_S1_S2_
GPGPU-Sim PTX: __cudaRegisterFunction __nv_static_51__38_cuda_device_runtime_compute_70_cpp1_ii_8b1a5d37__Z16memcpy_3d_deviceImLi1ELi0ELi0EEvPKhPhT_S3_S3_S3_S3_S3_S3_jjjjjjjjS3_S1_S2_ : hostFun 0x0x40b090, fat_cubin_handle = 2
Warning: cannot find deviceFun __nv_static_51__38_cuda_device_runtime_compute_70_cpp1_ii_8b1a5d37__Z16memcpy_3d_deviceImLi1ELi0ELi0EEvPKhPhT_S3_S3_S3_S3_S3_S3_jjjjjjjjS3_S1_S2_
GPGPU-Sim PTX: __cudaRegisterFunction __nv_static_51__38_cuda_device_runtime_compute_70_cpp1_ii_8b1a5d37__Z16memcpy_3d_deviceImLi0ELi1ELi1EEvPKhPhT_S3_S3_S3_S3_S3_S3_jjjjjjjjS3_S1_S2_ : hostFun 0x0x40b320, fat_cubin_handle = 2
Warning: cannot find deviceFun __nv_static_51__38_cuda_device_runtime_compute_70_cpp1_ii_8b1a5d37__Z16memcpy_3d_deviceImLi0ELi1ELi1EEvPKhPhT_S3_S3_S3_S3_S3_S3_jjjjjjjjS3_S1_S2_
GPGPU-Sim PTX: __cudaRegisterFunction __nv_static_51__38_cuda_device_runtime_compute_70_cpp1_ii_8b1a5d37__Z16memcpy_3d_deviceImLi0ELi1ELi0EEvPKhPhT_S3_S3_S3_S3_S3_S3_jjjjjjjjS3_S1_S2_ : hostFun 0x0x40b5b0, fat_cubin_handle = 2
Warning: cannot find deviceFun __nv_static_51__38_cuda_device_runtime_compute_70_cpp1_ii_8b1a5d37__Z16memcpy_3d_deviceImLi0ELi1ELi0EEvPKhPhT_S3_S3_S3_S3_S3_S3_jjjjjjjjS3_S1_S2_
GPGPU-Sim PTX: __cudaRegisterFunction __nv_static_51__38_cuda_device_runtime_compute_70_cpp1_ii_8b1a5d37__Z16memcpy_3d_deviceImLi0ELi0ELi1EEvPKhPhT_S3_S3_S3_S3_S3_S3_jjjjjjjjS3_S1_S2_ : hostFun 0x0x40b840, fat_cubin_handle = 2
Warning: cannot find deviceFun __nv_static_51__38_cuda_device_runtime_compute_70_cpp1_ii_8b1a5d37__Z16memcpy_3d_deviceImLi0ELi0ELi1EEvPKhPhT_S3_S3_S3_S3_S3_S3_jjjjjjjjS3_S1_S2_
GPGPU-Sim PTX: __cudaRegisterFunction __nv_static_51__38_cuda_device_runtime_compute_70_cpp1_ii_8b1a5d37__Z16memcpy_3d_deviceImLi0ELi0ELi0EEvPKhPhT_S3_S3_S3_S3_S3_S3_jjjjjjjjS3_S1_S2_ : hostFun 0x0x40bad0, fat_cubin_handle = 2
Warning: cannot find deviceFun __nv_static_51__38_cuda_device_runtime_compute_70_cpp1_ii_8b1a5d37__Z16memcpy_3d_deviceImLi0ELi0ELi0EEvPKhPhT_S3_S3_S3_S3_S3_S3_jjjjjjjjS3_S1_S2_
GPGPU-Sim PTX: __cudaRegisterFunction __nv_static_51__38_cuda_device_runtime_compute_70_cpp1_ii_8b1a5d37__Z16memcpy_3d_deviceIjLi1ELi1ELi1EEvPKhPhT_S3_S3_S3_S3_S3_S3_jjjjjjjjS3_S1_S2_ : hostFun 0x0x40bd50, fat_cubin_handle = 2
Warning: cannot find deviceFun __nv_static_51__38_cuda_device_runtime_compute_70_cpp1_ii_8b1a5d37__Z16memcpy_3d_deviceIjLi1ELi1ELi1EEvPKhPhT_S3_S3_S3_S3_S3_S3_jjjjjjjjS3_S1_S2_
GPGPU-Sim PTX: __cudaRegisterFunction __nv_static_51__38_cuda_device_runtime_compute_70_cpp1_ii_8b1a5d37__Z16memcpy_3d_deviceIjLi1ELi1ELi0EEvPKhPhT_S3_S3_S3_S3_S3_S3_jjjjjjjjS3_S1_S2_ : hostFun 0x0x40bfd0, fat_cubin_handle = 2
Warning: cannot find deviceFun __nv_static_51__38_cuda_device_runtime_compute_70_cpp1_ii_8b1a5d37__Z16memcpy_3d_deviceIjLi1ELi1ELi0EEvPKhPhT_S3_S3_S3_S3_S3_S3_jjjjjjjjS3_S1_S2_
GPGPU-Sim PTX: __cudaRegisterFunction __nv_static_51__38_cuda_device_runtime_compute_70_cpp1_ii_8b1a5d37__Z16memcpy_3d_deviceIjLi1ELi0ELi1EEvPKhPhT_S3_S3_S3_S3_S3_S3_jjjjjjjjS3_S1_S2_ : hostFun 0x0x40c250, fat_cubin_handle = 2
Warning: cannot find deviceFun __nv_static_51__38_cuda_device_runtime_compute_70_cpp1_ii_8b1a5d37__Z16memcpy_3d_deviceIjLi1ELi0ELi1EEvPKhPhT_S3_S3_S3_S3_S3_S3_jjjjjjjjS3_S1_S2_
GPGPU-Sim PTX: __cudaRegisterFunction __nv_static_51__38_cuda_device_runtime_compute_70_cpp1_ii_8b1a5d37__Z16memcpy_3d_deviceIjLi1ELi0ELi0EEvPKhPhT_S3_S3_S3_S3_S3_S3_jjjjjjjjS3_S1_S2_ : hostFun 0x0x40c4d0, fat_cubin_handle = 2
Warning: cannot find deviceFun __nv_static_51__38_cuda_device_runtime_compute_70_cpp1_ii_8b1a5d37__Z16memcpy_3d_deviceIjLi1ELi0ELi0EEvPKhPhT_S3_S3_S3_S3_S3_S3_jjjjjjjjS3_S1_S2_
GPGPU-Sim PTX: __cudaRegisterFunction __nv_static_51__38_cuda_device_runtime_compute_70_cpp1_ii_8b1a5d37__Z16memcpy_3d_deviceIjLi0ELi1ELi1EEvPKhPhT_S3_S3_S3_S3_S3_S3_jjjjjjjjS3_S1_S2_ : hostFun 0x0x40c750, fat_cubin_handle = 2
Warning: cannot find deviceFun __nv_static_51__38_cuda_device_runtime_compute_70_cpp1_ii_8b1a5d37__Z16memcpy_3d_deviceIjLi0ELi1ELi1EEvPKhPhT_S3_S3_S3_S3_S3_S3_jjjjjjjjS3_S1_S2_
GPGPU-Sim PTX: __cudaRegisterFunction __nv_static_51__38_cuda_device_runtime_compute_70_cpp1_ii_8b1a5d37__Z16memcpy_3d_deviceIjLi0ELi1ELi0EEvPKhPhT_S3_S3_S3_S3_S3_S3_jjjjjjjjS3_S1_S2_ : hostFun 0x0x40c9d0, fat_cubin_handle = 2
Warning: cannot find deviceFun __nv_static_51__38_cuda_device_runtime_compute_70_cpp1_ii_8b1a5d37__Z16memcpy_3d_deviceIjLi0ELi1ELi0EEvPKhPhT_S3_S3_S3_S3_S3_S3_jjjjjjjjS3_S1_S2_
GPGPU-Sim PTX: __cudaRegisterFunction __nv_static_51__38_cuda_device_runtime_compute_70_cpp1_ii_8b1a5d37__Z16memcpy_3d_deviceIjLi0ELi0ELi1EEvPKhPhT_S3_S3_S3_S3_S3_S3_jjjjjjjjS3_S1_S2_ : hostFun 0x0x40cc50, fat_cubin_handle = 2
Warning: cannot find deviceFun __nv_static_51__38_cuda_device_runtime_compute_70_cpp1_ii_8b1a5d37__Z16memcpy_3d_deviceIjLi0ELi0ELi1EEvPKhPhT_S3_S3_S3_S3_S3_S3_jjjjjjjjS3_S1_S2_
GPGPU-Sim PTX: __cudaRegisterFunction __nv_static_51__38_cuda_device_runtime_compute_70_cpp1_ii_8b1a5d37__Z16memcpy_3d_deviceIjLi0ELi0ELi0EEvPKhPhT_S3_S3_S3_S3_S3_S3_jjjjjjjjS3_S1_S2_ : hostFun 0x0x40ced0, fat_cubin_handle = 2
Warning: cannot find deviceFun __nv_static_51__38_cuda_device_runtime_compute_70_cpp1_ii_8b1a5d37__Z16memcpy_3d_deviceIjLi0ELi0ELi0EEvPKhPhT_S3_S3_S3_S3_S3_S3_jjjjjjjjS3_S1_S2_
GPGPU-Sim PTX: __cudaRegisterFunction __nv_static_51__38_cuda_device_runtime_compute_70_cpp1_ii_8b1a5d37__Z16memset_3d_deviceImLi1ELi1ELi1EEvPhhjT_S1_S1_S1_S1_jjjjjjjS1_S0_ : hostFun 0x0x40d0f0, fat_cubin_handle = 2
Warning: cannot find deviceFun __nv_static_51__38_cuda_device_runtime_compute_70_cpp1_ii_8b1a5d37__Z16memset_3d_deviceImLi1ELi1ELi1EEvPhhjT_S1_S1_S1_S1_jjjjjjjS1_S0_
GPGPU-Sim PTX: __cudaRegisterFunction __nv_static_51__38_cuda_device_runtime_compute_70_cpp1_ii_8b1a5d37__Z16memset_3d_deviceImLi1ELi1ELi0EEvPhhjT_S1_S1_S1_S1_jjjjjjjS1_S0_ : hostFun 0x0x40d310, fat_cubin_handle = 2
Warning: cannot find deviceFun __nv_static_51__38_cuda_device_runtime_compute_70_cpp1_ii_8b1a5d37__Z16memset_3d_deviceImLi1ELi1ELi0EEvPhhjT_S1_S1_S1_S1_jjjjjjjS1_S0_
GPGPU-Sim PTX: __cudaRegisterFunction __nv_static_51__38_cuda_device_runtime_compute_70_cpp1_ii_8b1a5d37__Z16memset_3d_deviceImLi1ELi0ELi1EEvPhhjT_S1_S1_S1_S1_jjjjjjjS1_S0_ : hostFun 0x0x40d530, fat_cubin_handle = 2
Warning: cannot find deviceFun __nv_static_51__38_cuda_device_runtime_compute_70_cpp1_ii_8b1a5d37__Z16memset_3d_deviceImLi1ELi0ELi1EEvPhhjT_S1_S1_S1_S1_jjjjjjjS1_S0_
GPGPU-Sim PTX: __cudaRegisterFunction __nv_static_51__38_cuda_device_runtime_compute_70_cpp1_ii_8b1a5d37__Z16memset_3d_deviceImLi1ELi0ELi0EEvPhhjT_S1_S1_S1_S1_jjjjjjjS1_S0_ : hostFun 0x0x40d750, fat_cubin_handle = 2
Warning: cannot find deviceFun __nv_static_51__38_cuda_device_runtime_compute_70_cpp1_ii_8b1a5d37__Z16memset_3d_deviceImLi1ELi0ELi0EEvPhhjT_S1_S1_S1_S1_jjjjjjjS1_S0_
GPGPU-Sim PTX: __cudaRegisterFunction __nv_static_51__38_cuda_device_runtime_compute_70_cpp1_ii_8b1a5d37__Z16memset_3d_deviceImLi0ELi1ELi1EEvPhhjT_S1_S1_S1_S1_jjjjjjjS1_S0_ : hostFun 0x0x40d970, fat_cubin_handle = 2
Warning: cannot find deviceFun __nv_static_51__38_cuda_device_runtime_compute_70_cpp1_ii_8b1a5d37__Z16memset_3d_deviceImLi0ELi1ELi1EEvPhhjT_S1_S1_S1_S1_jjjjjjjS1_S0_
GPGPU-Sim PTX: __cudaRegisterFunction __nv_static_51__38_cuda_device_runtime_compute_70_cpp1_ii_8b1a5d37__Z16memset_3d_deviceImLi0ELi1ELi0EEvPhhjT_S1_S1_S1_S1_jjjjjjjS1_S0_ : hostFun 0x0x40db90, fat_cubin_handle = 2
Warning: cannot find deviceFun __nv_static_51__38_cuda_device_runtime_compute_70_cpp1_ii_8b1a5d37__Z16memset_3d_deviceImLi0ELi1ELi0EEvPhhjT_S1_S1_S1_S1_jjjjjjjS1_S0_
GPGPU-Sim PTX: __cudaRegisterFunction __nv_static_51__38_cuda_device_runtime_compute_70_cpp1_ii_8b1a5d37__Z16memset_3d_deviceImLi0ELi0ELi1EEvPhhjT_S1_S1_S1_S1_jjjjjjjS1_S0_ : hostFun 0x0x40ddb0, fat_cubin_handle = 2
Warning: cannot find deviceFun __nv_static_51__38_cuda_device_runtime_compute_70_cpp1_ii_8b1a5d37__Z16memset_3d_deviceImLi0ELi0ELi1EEvPhhjT_S1_S1_S1_S1_jjjjjjjS1_S0_
GPGPU-Sim PTX: __cudaRegisterFunction __nv_static_51__38_cuda_device_runtime_compute_70_cpp1_ii_8b1a5d37__Z16memset_3d_deviceImLi0ELi0ELi0EEvPhhjT_S1_S1_S1_S1_jjjjjjjS1_S0_ : hostFun 0x0x40dfd0, fat_cubin_handle = 2
Warning: cannot find deviceFun __nv_static_51__38_cuda_device_runtime_compute_70_cpp1_ii_8b1a5d37__Z16memset_3d_deviceImLi0ELi0ELi0EEvPhhjT_S1_S1_S1_S1_jjjjjjjS1_S0_
GPGPU-Sim PTX: __cudaRegisterFunction __nv_static_51__38_cuda_device_runtime_compute_70_cpp1_ii_8b1a5d37__Z16memset_3d_deviceIjLi1ELi1ELi1EEvPhhjT_S1_S1_S1_S1_jjjjjjjS1_S0_ : hostFun 0x0x40e1f0, fat_cubin_handle = 2
Warning: cannot find deviceFun __nv_static_51__38_cuda_device_runtime_compute_70_cpp1_ii_8b1a5d37__Z16memset_3d_deviceIjLi1ELi1ELi1EEvPhhjT_S1_S1_S1_S1_jjjjjjjS1_S0_
GPGPU-Sim PTX: __cudaRegisterFunction __nv_static_51__38_cuda_device_runtime_compute_70_cpp1_ii_8b1a5d37__Z16memset_3d_deviceIjLi1ELi1ELi0EEvPhhjT_S1_S1_S1_S1_jjjjjjjS1_S0_ : hostFun 0x0x40e410, fat_cubin_handle = 2
Warning: cannot find deviceFun __nv_static_51__38_cuda_device_runtime_compute_70_cpp1_ii_8b1a5d37__Z16memset_3d_deviceIjLi1ELi1ELi0EEvPhhjT_S1_S1_S1_S1_jjjjjjjS1_S0_
GPGPU-Sim PTX: __cudaRegisterFunction __nv_static_51__38_cuda_device_runtime_compute_70_cpp1_ii_8b1a5d37__Z16memset_3d_deviceIjLi1ELi0ELi1EEvPhhjT_S1_S1_S1_S1_jjjjjjjS1_S0_ : hostFun 0x0x40e630, fat_cubin_handle = 2
Warning: cannot find deviceFun __nv_static_51__38_cuda_device_runtime_compute_70_cpp1_ii_8b1a5d37__Z16memset_3d_deviceIjLi1ELi0ELi1EEvPhhjT_S1_S1_S1_S1_jjjjjjjS1_S0_
GPGPU-Sim PTX: __cudaRegisterFunction __nv_static_51__38_cuda_device_runtime_compute_70_cpp1_ii_8b1a5d37__Z16memset_3d_deviceIjLi1ELi0ELi0EEvPhhjT_S1_S1_S1_S1_jjjjjjjS1_S0_ : hostFun 0x0x40e850, fat_cubin_handle = 2
Warning: cannot find deviceFun __nv_static_51__38_cuda_device_runtime_compute_70_cpp1_ii_8b1a5d37__Z16memset_3d_deviceIjLi1ELi0ELi0EEvPhhjT_S1_S1_S1_S1_jjjjjjjS1_S0_
GPGPU-Sim PTX: __cudaRegisterFunction __nv_static_51__38_cuda_device_runtime_compute_70_cpp1_ii_8b1a5d37__Z16memset_3d_deviceIjLi0ELi1ELi1EEvPhhjT_S1_S1_S1_S1_jjjjjjjS1_S0_ : hostFun 0x0x40ea70, fat_cubin_handle = 2
Warning: cannot find deviceFun __nv_static_51__38_cuda_device_runtime_compute_70_cpp1_ii_8b1a5d37__Z16memset_3d_deviceIjLi0ELi1ELi1EEvPhhjT_S1_S1_S1_S1_jjjjjjjS1_S0_
GPGPU-Sim PTX: __cudaRegisterFunction __nv_static_51__38_cuda_device_runtime_compute_70_cpp1_ii_8b1a5d37__Z16memset_3d_deviceIjLi0ELi1ELi0EEvPhhjT_S1_S1_S1_S1_jjjjjjjS1_S0_ : hostFun 0x0x40ec90, fat_cubin_handle = 2
Warning: cannot find deviceFun __nv_static_51__38_cuda_device_runtime_compute_70_cpp1_ii_8b1a5d37__Z16memset_3d_deviceIjLi0ELi1ELi0EEvPhhjT_S1_S1_S1_S1_jjjjjjjS1_S0_
GPGPU-Sim PTX: __cudaRegisterFunction __nv_static_51__38_cuda_device_runtime_compute_70_cpp1_ii_8b1a5d37__Z16memset_3d_deviceIjLi0ELi0ELi1EEvPhhjT_S1_S1_S1_S1_jjjjjjjS1_S0_ : hostFun 0x0x40eeb0, fat_cubin_handle = 2
Warning: cannot find deviceFun __nv_static_51__38_cuda_device_runtime_compute_70_cpp1_ii_8b1a5d37__Z16memset_3d_deviceIjLi0ELi0ELi1EEvPhhjT_S1_S1_S1_S1_jjjjjjjS1_S0_
GPGPU-Sim PTX: __cudaRegisterFunction __nv_static_51__38_cuda_device_runtime_compute_70_cpp1_ii_8b1a5d37__Z16memset_3d_deviceIjLi0ELi0ELi0EEvPhhjT_S1_S1_S1_S1_jjjjjjjS1_S0_ : hostFun 0x0x40f0d0, fat_cubin_handle = 2
Warning: cannot find deviceFun __nv_static_51__38_cuda_device_runtime_compute_70_cpp1_ii_8b1a5d37__Z16memset_3d_deviceIjLi0ELi0ELi0EEvPhhjT_S1_S1_S1_S1_jjjjjjjS1_S0_
GPGPU-Sim PTX: __cudaRegisterVar: hostVar = 0x6a32e0; deviceAddress = __nv_static_51__38_cuda_device_runtime_compute_70_cpp1_ii_8b1a5d37_set_kernel32; deviceName = __nv_static_51__38_cuda_device_runtime_compute_70_cpp1_ii_8b1a5d37_set_kernel32
GPGPU-Sim PTX: __cudaRegisterVar: Registering const memory space of 64 bytes
GPGPU-Sim PTX registering constant __nv_static_51__38_cuda_device_runtime_compute_70_cpp1_ii_8b1a5d37_set_kernel32 (64 bytes) to name mapping
GPGPU-Sim PTX: __cudaRegisterVar: hostVar = 0x6a3320; deviceAddress = __nv_static_51__38_cuda_device_runtime_compute_70_cpp1_ii_8b1a5d37_set_kernel64; deviceName = __nv_static_51__38_cuda_device_runtime_compute_70_cpp1_ii_8b1a5d37_set_kernel64
GPGPU-Sim PTX: __cudaRegisterVar: Registering const memory space of 64 bytes
GPGPU-Sim PTX registering constant __nv_static_51__38_cuda_device_runtime_compute_70_cpp1_ii_8b1a5d37_set_kernel64 (64 bytes) to name mapping
GPGPU-Sim PTX: __cudaRegisterVar: hostVar = 0x6a3360; deviceAddress = __nv_static_51__38_cuda_device_runtime_compute_70_cpp1_ii_8b1a5d37_cpy_kernel32; deviceName = __nv_static_51__38_cuda_device_runtime_compute_70_cpp1_ii_8b1a5d37_cpy_kernel32
GPGPU-Sim PTX: __cudaRegisterVar: Registering const memory space of 64 bytes
GPGPU-Sim PTX registering constant __nv_static_51__38_cuda_device_runtime_compute_70_cpp1_ii_8b1a5d37_cpy_kernel32 (64 bytes) to name mapping
GPGPU-Sim PTX: __cudaRegisterVar: hostVar = 0x6a33a0; deviceAddress = __nv_static_51__38_cuda_device_runtime_compute_70_cpp1_ii_8b1a5d37_cpy_kernel64; deviceName = __nv_static_51__38_cuda_device_runtime_compute_70_cpp1_ii_8b1a5d37_cpy_kernel64
GPGPU-Sim PTX: __cudaRegisterVar: Registering const memory space of 64 bytes
GPGPU-Sim PTX registering constant __nv_static_51__38_cuda_device_runtime_compute_70_cpp1_ii_8b1a5d37_cpy_kernel64 (64 bytes) to name mapping
GPGPU-Sim PTX: __cudaRegisterVar: hostVar = 0x6a2500; deviceAddress = __nv_static_51__38_cuda_device_runtime_compute_70_cpp1_ii_8b1a5d37_cudartErrorTableArr; deviceName = __nv_static_51__38_cuda_device_runtime_compute_70_cpp1_ii_8b1a5d37_cudartErrorTableArr
GPGPU-Sim PTX: __cudaRegisterVar: Registering const memory space of 1992 bytes
GPGPU-Sim PTX registering global __nv_static_51__38_cuda_device_runtime_compute_70_cpp1_ii_8b1a5d37_cudartErrorTableArr hostVar to name mapping
GPGPU-Sim PTX: __cudaRegisterVar: hostVar = 0x6a32c0; deviceAddress = cudartErrorTable; deviceName = cudartErrorTable
GPGPU-Sim PTX: __cudaRegisterVar: Registering const memory space of 8 bytes
GPGPU-Sim PTX registering global cudartErrorTable hostVar to name mapping
GPGPU-Sim PTX: __cudaRegisterVar: hostVar = 0x411fc0; deviceAddress = cudartErrorTableEntryCount; deviceName = cudartErrorTableEntryCount
GPGPU-Sim PTX: __cudaRegisterVar: Registering const memory space of 4 bytes
GPGPU-Sim PTX registering global cudartErrorTableEntryCount hostVar to name mapping
GPGPU-Sim PTX: __cudaRegisterVar: hostVar = 0x411fe0; deviceAddress = __nv_static_51__38_cuda_device_runtime_compute_70_cpp1_ii_8b1a5d37_cudartErrorCnpMapArr; deviceName = __nv_static_51__38_cuda_device_runtime_compute_70_cpp1_ii_8b1a5d37_cudartErrorCnpMapArr
GPGPU-Sim PTX: __cudaRegisterVar: Registering const memory space of 104 bytes
GPGPU-Sim PTX registering global __nv_static_51__38_cuda_device_runtime_compute_70_cpp1_ii_8b1a5d37_cudartErrorCnpMapArr hostVar to name mapping
GPGPU-Sim PTX: __cudaRegisterVar: hostVar = 0x6a32c8; deviceAddress = cudartErrorCnpMap; deviceName = cudartErrorCnpMap
GPGPU-Sim PTX: __cudaRegisterVar: Registering const memory space of 8 bytes
GPGPU-Sim PTX registering global cudartErrorCnpMap hostVar to name mapping
GPGPU-Sim PTX: __cudaRegisterVar: hostVar = 0x411fc4; deviceAddress = cudartErrorCnpMapEntryCount; deviceName = cudartErrorCnpMapEntryCount
GPGPU-Sim PTX: __cudaRegisterVar: Registering const memory space of 4 bytes
GPGPU-Sim PTX registering global cudartErrorCnpMapEntryCount hostVar to name mapping
GPGPU-Sim PTX: __cudaRegisterVar: hostVar = 0x6a32d0; deviceAddress = __CNPRT_VERSION_NUMBER__; deviceName = __CNPRT_VERSION_NUMBER__
GPGPU-Sim PTX: __cudaRegisterVar: Registering const memory space of 4 bytes
GPGPU-Sim PTX registering global __CNPRT_VERSION_NUMBER__ hostVar to name mapping
GPGPU-Sim PTX: Setting up arguments for 432 bytes starting at 0x7fff7f8318f0..

GPGPU-Sim PTX: cudaLaunch for 0x0x40313a (mode=performance simulation) on stream 0
GPGPU-Sim PTX: finding reconvergence points for '_ZN7cutlass4gemm11gemm_kernelINS0_4GemmINS0_14WmmaGemmTraitsILNS_12MatrixLayout4KindE0ELS5_0ENS_5ShapeILi32ELi16ELi16ELi1EEEfNS0_13LinearScalingIfNS0_19FragmentMultiplyAddIfEEEEfS7_NS6_ILi16ELi16ELi16ELi1EEELi8ELi8EiNS0_20WmmaGemmTraitsHelperILS5_0ELS5_0ES7_ffSB_S7_SC_Li8ELi8EiEEEEEEEEvNT_6ParamsE'...
GPGPU-Sim PTX: Finding dominators for '_ZN7cutlass4gemm11gemm_kernelINS0_4GemmINS0_14WmmaGemmTraitsILNS_12MatrixLayout4KindE0ELS5_0ENS_5ShapeILi32ELi16ELi16ELi1EEEfNS0_13LinearScalingIfNS0_19FragmentMultiplyAddIfEEEEfS7_NS6_ILi16ELi16ELi16ELi1EEELi8ELi8EiNS0_20WmmaGemmTraitsHelperILS5_0ELS5_0ES7_ffSB_S7_SC_Li8ELi8EiEEEEEEEEvNT_6ParamsE'...
GPGPU-Sim PTX: Finding immediate dominators for '_ZN7cutlass4gemm11gemm_kernelINS0_4GemmINS0_14WmmaGemmTraitsILNS_12MatrixLayout4KindE0ELS5_0ENS_5ShapeILi32ELi16ELi16ELi1EEEfNS0_13LinearScalingIfNS0_19FragmentMultiplyAddIfEEEEfS7_NS6_ILi16ELi16ELi16ELi1EEELi8ELi8EiNS0_20WmmaGemmTraitsHelperILS5_0ELS5_0ES7_ffSB_S7_SC_Li8ELi8EiEEEEEEEEvNT_6ParamsE'...
GPGPU-Sim PTX: Finding postdominators for '_ZN7cutlass4gemm11gemm_kernelINS0_4GemmINS0_14WmmaGemmTraitsILNS_12MatrixLayout4KindE0ELS5_0ENS_5ShapeILi32ELi16ELi16ELi1EEEfNS0_13LinearScalingIfNS0_19FragmentMultiplyAddIfEEEEfS7_NS6_ILi16ELi16ELi16ELi1EEELi8ELi8EiNS0_20WmmaGemmTraitsHelperILS5_0ELS5_0ES7_ffSB_S7_SC_Li8ELi8EiEEEEEEEEvNT_6ParamsE'...
GPGPU-Sim PTX: Finding immediate postdominators for '_ZN7cutlass4gemm11gemm_kernelINS0_4GemmINS0_14WmmaGemmTraitsILNS_12MatrixLayout4KindE0ELS5_0ENS_5ShapeILi32ELi16ELi16ELi1EEEfNS0_13LinearScalingIfNS0_19FragmentMultiplyAddIfEEEEfS7_NS6_ILi16ELi16ELi16ELi1EEELi8ELi8EiNS0_20WmmaGemmTraitsHelperILS5_0ELS5_0ES7_ffSB_S7_SC_Li8ELi8EiEEEEEEEEvNT_6ParamsE'...
GPGPU-Sim PTX: pre-decoding instructions for '_ZN7cutlass4gemm11gemm_kernelINS0_4GemmINS0_14WmmaGemmTraitsILNS_12MatrixLayout4KindE0ELS5_0ENS_5ShapeILi32ELi16ELi16ELi1EEEfNS0_13LinearScalingIfNS0_19FragmentMultiplyAddIfEEEEfS7_NS6_ILi16ELi16ELi16ELi1EEELi8ELi8EiNS0_20WmmaGemmTraitsHelperILS5_0ELS5_0ES7_ffSB_S7_SC_Li8ELi8EiEEEEEEEEvNT_6ParamsE'...
GPGPU-Sim PTX: reconvergence points for _ZN7cutlass4gemm11gemm_kernelINS0_4GemmINS0_14WmmaGemmTraitsILNS_12MatrixLayout4KindE0ELS5_0ENS_5ShapeILi32ELi16ELi16ELi1EEEfNS0_13LinearScalingIfNS0_19FragmentMultiplyAddIfEEEEfS7_NS6_ILi16ELi16ELi16ELi1EEELi8ELi8EiNS0_20WmmaGemmTraitsHelperILS5_0ELS5_0ES7_ffSB_S7_SC_Li8ELi8EiEEEEEEEEvNT_6ParamsE...
GPGPU-Sim PTX:  1 (potential) branch divergence @  PC=0x120 (cutlass-test.1.sm_70.ptx:78) @%p7 bra BB0_2;
GPGPU-Sim PTX:    immediate post dominator      @  PC=0x198 (cutlass-test.1.sm_70.ptx:116) ld.param.u32 %r15, [%rd1+108];
GPGPU-Sim PTX:  2 (potential) branch divergence @  PC=0x260 (cutlass-test.1.sm_70.ptx:141) @%p13 bra BB0_4;
GPGPU-Sim PTX:    immediate post dominator      @  PC=0x2d8 (cutlass-test.1.sm_70.ptx:179) setp.lt.s32%p14, %r10, 32;
GPGPU-Sim PTX:  3 (potential) branch divergence @  PC=0x2e0 (cutlass-test.1.sm_70.ptx:180) @%p14 bra BB0_7;
GPGPU-Sim PTX:    immediate post dominator      @  PC=0x3a8 (cutlass-test.1.sm_70.ptx:212) and.b32 %r342, %r510, 1;
GPGPU-Sim PTX:  4 (potential) branch divergence @  PC=0x2e8 (cutlass-test.1.sm_70.ptx:181) bra.uni BB0_5;
GPGPU-Sim PTX:    immediate post dominator      @  PC=0x348 (cutlass-test.1.sm_70.ptx:197) setp.gt.s32%p15, %r10, 32;
GPGPU-Sim PTX:  5 (potential) branch divergence @  PC=0x340 (cutlass-test.1.sm_70.ptx:194) bra.uni BB0_8;
GPGPU-Sim PTX:    immediate post dominator      @  PC=0x3a8 (cutlass-test.1.sm_70.ptx:212) and.b32 %r342, %r510, 1;
GPGPU-Sim PTX:  6 (potential) branch divergence @  PC=0x350 (cutlass-test.1.sm_70.ptx:198) @%p15 bra BB0_8;
GPGPU-Sim PTX:    immediate post dominator      @  PC=0x3a8 (cutlass-test.1.sm_70.ptx:212) and.b32 %r342, %r510, 1;
GPGPU-Sim PTX:  7 (potential) branch divergence @  PC=0x3e0 (cutlass-test.1.sm_70.ptx:219) @!%p22 bra BB0_10;
GPGPU-Sim PTX:    immediate post dominator      @  PC=0x3f8 (cutlass-test.1.sm_70.ptx:226) ld.param.u32 %r44, [%rd1+32];
GPGPU-Sim PTX:  8 (potential) branch divergence @  PC=0x3e8 (cutlass-test.1.sm_70.ptx:220) bra.uni BB0_9;
GPGPU-Sim PTX:    immediate post dominator      @  PC=0x3f0 (cutlass-test.1.sm_70.ptx:223) ld.global.v4.u32 {%r590, %r591, %r588, %r589}, [%rd6];
GPGPU-Sim PTX:  9 (potential) branch divergence @  PC=0x450 (cutlass-test.1.sm_70.ptx:237) @%p23 bra BB0_12;
GPGPU-Sim PTX:    immediate post dominator      @  PC=0x460 (cutlass-test.1.sm_70.ptx:242) and.b32 %r360, %r509, 1;
GPGPU-Sim PTX: 10 (potential) branch divergence @  PC=0x490 (cutlass-test.1.sm_70.ptx:248) @!%p24 bra BB0_14;
GPGPU-Sim PTX:    immediate post dominator      @  PC=0x4a8 (cutlass-test.1.sm_70.ptx:255) ld.param.u32 %r61, [%rd1+120];
GPGPU-Sim PTX: 11 (potential) branch divergence @  PC=0x498 (cutlass-test.1.sm_70.ptx:249) bra.uni BB0_13;
GPGPU-Sim PTX:    immediate post dominator      @  PC=0x4a0 (cutlass-test.1.sm_70.ptx:252) ld.global.v4.u32 {%r598, %r599, %r596, %r597}, [%rd8];
GPGPU-Sim PTX: 12 (potential) branch divergence @  PC=0x4f8 (cutlass-test.1.sm_70.ptx:265) @%p25 bra BB0_16;
GPGPU-Sim PTX:    immediate post dominator      @  PC=0x508 (cutlass-test.1.sm_70.ptx:270) shl.b32 %r374, %r14, 1;
GPGPU-Sim PTX: 13 (potential) branch divergence @  PC=0x570 (cutlass-test.1.sm_70.ptx:283) @%p26 bra BB0_18;
GPGPU-Sim PTX:    immediate post dominator      @  PC=0x5e8 (cutlass-test.1.sm_70.ptx:321) mul.wide.s32 %rd63, %r73, 2;
GPGPU-Sim PTX: 14 (potential) branch divergence @  PC=0x648 (cutlass-test.1.sm_70.ptx:336) @%p27 bra BB0_19;
GPGPU-Sim PTX:    immediate post dominator      @  PC=0xaf0 (cutlass-test.1.sm_70.ptx:509) setp.lt.s32%p37, %r628, -31;
GPGPU-Sim PTX: 15 (potential) branch divergence @  PC=0x808 (cutlass-test.1.sm_70.ptx:395) @%p28 bra BB0_23;
GPGPU-Sim PTX:    immediate post dominator      @  PC=0x8e8 (cutlass-test.1.sm_70.ptx:426) and.b32 %r428, %r510, 1;
GPGPU-Sim PTX: 16 (potential) branch divergence @  PC=0x8f8 (cutlass-test.1.sm_70.ptx:428) @!%p32 bra BB0_25;
GPGPU-Sim PTX:    immediate post dominator      @  PC=0x910 (cutlass-test.1.sm_70.ptx:435) and.b32 %r433, %r510, 2;
GPGPU-Sim PTX: 17 (potential) branch divergence @  PC=0x900 (cutlass-test.1.sm_70.ptx:429) bra.uni BB0_24;
GPGPU-Sim PTX:    immediate post dominator      @  PC=0x908 (cutlass-test.1.sm_70.ptx:432) ld.global.v4.u32 {%r590, %r591, %r588, %r589}, [%rd164];
GPGPU-Sim PTX: 18 (potential) branch divergence @  PC=0x920 (cutlass-test.1.sm_70.ptx:437) @%p33 bra BB0_27;
GPGPU-Sim PTX:    immediate post dominator      @  PC=0x930 (cutlass-test.1.sm_70.ptx:442) and.b32 %r438, %r509, 1;
GPGPU-Sim PTX: 19 (potential) branch divergence @  PC=0x940 (cutlass-test.1.sm_70.ptx:444) @!%p34 bra BB0_29;
GPGPU-Sim PTX:    immediate post dominator      @  PC=0x960 (cutlass-test.1.sm_70.ptx:452) and.b32 %r443, %r509, 2;
GPGPU-Sim PTX: 20 (potential) branch divergence @  PC=0x948 (cutlass-test.1.sm_70.ptx:445) bra.uni BB0_28;
GPGPU-Sim PTX:    immediate post dominator      @  PC=0x950 (cutlass-test.1.sm_70.ptx:448) add.s64 %rd88, %rd166, %rd16;
GPGPU-Sim PTX: 21 (potential) branch divergence @  PC=0x970 (cutlass-test.1.sm_70.ptx:454) @%p35 bra BB0_31;
GPGPU-Sim PTX:    immediate post dominator      @  PC=0x988 (cutlass-test.1.sm_70.ptx:460) add.s64 %rd91, %rd64, 32;
GPGPU-Sim PTX: 22 (potential) branch divergence @  PC=0xaa8 (cutlass-test.1.sm_70.ptx:496) @%p36 bra BB0_21;
GPGPU-Sim PTX:    immediate post dominator      @  PC=0xab0 (cutlass-test.1.sm_70.ptx:497) bra.uni BB0_32;
GPGPU-Sim PTX: 23 (potential) branch divergence @  PC=0xab0 (cutlass-test.1.sm_70.ptx:497) bra.uni BB0_32;
GPGPU-Sim PTX:    immediate post dominator      @  PC=0xaf0 (cutlass-test.1.sm_70.ptx:509) setp.lt.s32%p37, %r628, -31;
GPGPU-Sim PTX: 24 (potential) branch divergence @  PC=0xaf8 (cutlass-test.1.sm_70.ptx:510) @%p37 bra BB0_35;
GPGPU-Sim PTX:    immediate post dominator      @  PC=0xc08 (cutlass-test.1.sm_70.ptx:549) mov.b64%rd155, _ZN7cutlass4gemm11gemm_kernelINS0_4GemmINS0_14WmmaGemmTraitsILNS_12MatrixLayout4KindE0ELS5_0ENS_5ShapeILi32ELi16ELi16ELi1EEEfNS0_13LinearScalingIfNS0_19FragmentMultiplyAddIfEEEEfS7_NS6_ILi16ELi16ELi16ELi1EEELi8ELi8EiNS0_20WmmaGemmTraitsHelperILS5_0ELS5_0ES7_ffSB_S7_SC_Li8ELi8EiEEEEEEEEvNT_6ParamsE_param_0;
GPGPU-Sim PTX: 25 (potential) branch divergence @  PC=0xc00 (cutlass-test.1.sm_70.ptx:546) @%p38 bra BB0_34;
GPGPU-Sim PTX:    immediate post dominator      @  PC=0xc08 (cutlass-test.1.sm_70.ptx:549) mov.b64%rd155, _ZN7cutlass4gemm11gemm_kernelINS0_4GemmINS0_14WmmaGemmTraitsILNS_12MatrixLayout4KindE0ELS5_0ENS_5ShapeILi32ELi16ELi16ELi1EEEfNS0_13LinearScalingIfNS0_19FragmentMultiplyAddIfEEEEfS7_NS6_ILi16ELi16ELi16ELi1EEELi8ELi8EiNS0_20WmmaGemmTraitsHelperILS5_0ELS5_0ES7_ffSB_S7_SC_Li8ELi8EiEEEEEEEEvNT_6ParamsE_param_0;
GPGPU-Sim PTX: 26 (potential) branch divergence @  PC=0xd30 (cutlass-test.1.sm_70.ptx:586) @%p39 bra BB0_48;
GPGPU-Sim PTX:    immediate post dominator      @  PC=0x1308 (cutlass-test.1.sm_70.ptx:889) ret;
GPGPU-Sim PTX: 27 (potential) branch divergence @  PC=0xd38 (cutlass-test.1.sm_70.ptx:587) bra.uni BB0_36;
GPGPU-Sim PTX:    immediate post dominator      @  PC=0xf90 (cutlass-test.1.sm_70.ptx:717) mov.b64%rd147, _ZN7cutlass4gemm11gemm_kernelINS0_4GemmINS0_14WmmaGemmTraitsILNS_12MatrixLayout4KindE0ELS5_0ENS_5ShapeILi32ELi16ELi16ELi1EEEfNS0_13LinearScalingIfNS0_19FragmentMultiplyAddIfEEEEfS7_NS6_ILi16ELi16ELi16ELi1EEELi8ELi8EiNS0_20WmmaGemmTraitsHelperILS5_0ELS5_0ES7_ffSB_S7_SC_Li8ELi8EiEEEEEEEEvNT_6ParamsE_param_0;
GPGPU-Sim PTX: 28 (potential) branch divergence @  PC=0xd48 (cutlass-test.1.sm_70.ptx:591) @%p54 bra BB0_50;
GPGPU-Sim PTX:    immediate post dominator      @  PC=0xdc0 (cutlass-test.1.sm_70.ptx:629) setp.lt.s32%p55, %r301, 256;
GPGPU-Sim PTX: 29 (potential) branch divergence @  PC=0xdc8 (cutlass-test.1.sm_70.ptx:630) @%p55 bra BB0_52;
GPGPU-Sim PTX:    immediate post dominator      @  PC=0xe40 (cutlass-test.1.sm_70.ptx:668) ld.param.u32 %r497, [_ZN7cutlass4gemm11gemm_kernelINS0_4GemmINS0_14WmmaGemmTraitsILNS_12MatrixLayout4KindE0ELS5_0ENS_5ShapeILi32ELi16ELi16ELi1EEEfNS0_13LinearScalingIfNS0_19FragmentMultiplyAddIfEEEEfS7_NS6_ILi16ELi16ELi16ELi1EEELi8ELi8EiNS0_20WmmaGemmTraitsHelperILS5_0ELS5_0ES7_ffSB_S7_SC_Li8ELi8EiEEEEEEEEvNT_6ParamsE_param_0];
GPGPU-Sim PTX: 30 (potential) branch divergence @  PC=0xee0 (cutlass-test.1.sm_70.ptx:688) @%p58 bra BB0_54;
GPGPU-Sim PTX:    immediate post dominator      @  PC=0xf18 (cutlass-test.1.sm_70.ptx:698) sub.s32 %r480, %r299, %r295;
GPGPU-Sim PTX: 31 (potential) branch divergence @  PC=0xf70 (cutlass-test.1.sm_70.ptx:709) @!%p61 bra BB0_56;
GPGPU-Sim PTX:    immediate post dominator      @  PC=0x1308 (cutlass-test.1.sm_70.ptx:889) ret;
GPGPU-Sim PTX: 32 (potential) branch divergence @  PC=0xf78 (cutlass-test.1.sm_70.ptx:710) bra.uni BB0_55;
GPGPU-Sim PTX:    immediate post dominator      @  PC=0xf80 (cutlass-test.1.sm_70.ptx:713) st.global.v4.f32 [%rd28], {%f46, %f45, %f44, %f43};
GPGPU-Sim PTX: 33 (potential) branch divergence @  PC=0xf88 (cutlass-test.1.sm_70.ptx:714) bra.uni BB0_56;
GPGPU-Sim PTX:    immediate post dominator      @  PC=0x1308 (cutlass-test.1.sm_70.ptx:889) ret;
GPGPU-Sim PTX: 34 (potential) branch divergence @  PC=0xfc8 (cutlass-test.1.sm_70.ptx:724) @%p40 bra BB0_38;
GPGPU-Sim PTX:    immediate post dominator      @  PC=0x1040 (cutlass-test.1.sm_70.ptx:762) setp.lt.s32%p41, %r301, 256;
GPGPU-Sim PTX: 35 (potential) branch divergence @  PC=0x1048 (cutlass-test.1.sm_70.ptx:763) @%p41 bra BB0_40;
GPGPU-Sim PTX:    immediate post dominator      @  PC=0x10c0 (cutlass-test.1.sm_70.ptx:801) ld.param.u32 %r494, [_ZN7cutlass4gemm11gemm_kernelINS0_4GemmINS0_14WmmaGemmTraitsILNS_12MatrixLayout4KindE0ELS5_0ENS_5ShapeILi32ELi16ELi16ELi1EEEfNS0_13LinearScalingIfNS0_19FragmentMultiplyAddIfEEEEfS7_NS6_ILi16ELi16ELi16ELi1EEELi8ELi8EiNS0_20WmmaGemmTraitsHelperILS5_0ELS5_0ES7_ffSB_S7_SC_Li8ELi8EiEEEEEEEEvNT_6ParamsE_param_0];
GPGPU-Sim PTX: 36 (potential) branch divergence @  PC=0x10e0 (cutlass-test.1.sm_70.ptx:805) @!%p44 bra BB0_42;
GPGPU-Sim PTX:    immediate post dominator      @  PC=0x1118 (cutlass-test.1.sm_70.ptx:816) mov.b64%rd151, _ZN7cutlass4gemm11gemm_kernelINS0_4GemmINS0_14WmmaGemmTraitsILNS_12MatrixLayout4KindE0ELS5_0ENS_5ShapeILi32ELi16ELi16ELi1EEEfNS0_13LinearScalingIfNS0_19FragmentMultiplyAddIfEEEEfS7_NS6_ILi16ELi16ELi16ELi1EEELi8ELi8EiNS0_20WmmaGemmTraitsHelperILS5_0ELS5_0ES7_ffSB_S7_SC_Li8ELi8EiEEEEEEEEvNT_6ParamsE_param_0;
GPGPU-Sim PTX: 37 (potential) branch divergence @  PC=0x10e8 (cutlass-test.1.sm_70.ptx:806) bra.uni BB0_41;
GPGPU-Sim PTX:    immediate post dominator      @  PC=0x10f0 (cutlass-test.1.sm_70.ptx:809) ld.param.u64 %rd153, [_ZN7cutlass4gemm11gemm_kernelINS0_4GemmINS0_14WmmaGemmTraitsILNS_12MatrixLayout4KindE0ELS5_0ENS_5ShapeILi32ELi16ELi16ELi1EEEfNS0_13LinearScalingIfNS0_19FragmentMultiplyAddIfEEEEfS7_NS6_ILi16ELi16ELi16ELi1EEELi8ELi8EiNS0_20WmmaGemmTraitsHelperILS5_0ELS5_0ES7_ffSB_S7_SC_Li8ELi8EiEEEEEEEEvNT_6ParamsE_param_0+280];
GPGPU-Sim PTX: 38 (potential) branch divergence @  PC=0x1178 (cutlass-test.1.sm_70.ptx:828) @!%p47 bra BB0_44;
GPGPU-Sim PTX:    immediate post dominator      @  PC=0x1190 (cutlass-test.1.sm_70.ptx:835) bar.sync 0;
GPGPU-Sim PTX: 39 (potential) branch divergence @  PC=0x1180 (cutlass-test.1.sm_70.ptx:829) bra.uni BB0_43;
GPGPU-Sim PTX:    immediate post dominator      @  PC=0x1188 (cutlass-test.1.sm_70.ptx:832) ld.global.v4.f32 {%f151, %f152, %f153, %f154}, [%rd30];
GPGPU-Sim PTX: 40 (potential) branch divergence @  PC=0x12c8 (cutlass-test.1.sm_70.ptx:874) @%p50 bra BB0_46;
GPGPU-Sim PTX:    immediate post dominator      @  PC=0x12d8 (cutlass-test.1.sm_70.ptx:879) sub.s32 %r471, %r299, %r295;
GPGPU-Sim PTX: 41 (potential) branch divergence @  PC=0x12f0 (cutlass-test.1.sm_70.ptx:882) @!%p53 bra BB0_56;
GPGPU-Sim PTX:    immediate post dominator      @  PC=0x1308 (cutlass-test.1.sm_70.ptx:889) ret;
GPGPU-Sim PTX: 42 (potential) branch divergence @  PC=0x12f8 (cutlass-test.1.sm_70.ptx:883) bra.uni BB0_47;
GPGPU-Sim PTX:    immediate post dominator      @  PC=0x1300 (cutlass-test.1.sm_70.ptx:886) st.global.v4.f32 [%rd28], {%f39, %f40, %f41, %f42};
GPGPU-Sim PTX: ... end of reconvergence points for _ZN7cutlass4gemm11gemm_kernelINS0_4GemmINS0_14WmmaGemmTraitsILNS_12MatrixLayout4KindE0ELS5_0ENS_5ShapeILi32ELi16ELi16ELi1EEEfNS0_13LinearScalingIfNS0_19FragmentMultiplyAddIfEEEEfS7_NS6_ILi16ELi16ELi16ELi1EEELi8ELi8EiNS0_20WmmaGemmTraitsHelperILS5_0ELS5_0ES7_ffSB_S7_SC_Li8ELi8EiEEEEEEEEvNT_6ParamsE
GPGPU-Sim PTX: ... done pre-decoding instructions for '_ZN7cutlass4gemm11gemm_kernelINS0_4GemmINS0_14WmmaGemmTraitsILNS_12MatrixLayout4KindE0ELS5_0ENS_5ShapeILi32ELi16ELi16ELi1EEEfNS0_13LinearScalingIfNS0_19FragmentMultiplyAddIfEEEEfS7_NS6_ILi16ELi16ELi16ELi1EEELi8ELi8EiNS0_20WmmaGemmTraitsHelperILS5_0ELS5_0ES7_ffSB_S7_SC_Li8ELi8EiEEEEEEEEvNT_6ParamsE'.
GPGPU-Sim PTX: pushing kernel '_ZN7cutlass4gemm11gemm_kernelINS0_4GemmINS0_14WmmaGemmTraitsILNS_12MatrixLayout4KindE0ELS5_0ENS_5ShapeILi32ELi16ELi16ELi1EEEfNS0_13LinearScalingIfNS0_19FragmentMultiplyAddIfEEEEfS7_NS6_ILi16ELi16ELi16ELi1EEELi8ELi8EiNS0_20WmmaGemmTraitsHelperILS5_0ELS5_0ES7_ffSB_S7_SC_Li8ELi8EiEEEEEEEEvNT_6ParamsE' to stream 0, gridDim= (2,2,1) blockDim = (32,1,1) 
GPGPU-Sim uArch: Shader 0 bind to kernel 1 '_ZN7cutlass4gemm11gemm_kernelINS0_4GemmINS0_14WmmaGemmTraitsILNS_12MatrixLayout4KindE0ELS5_0ENS_5ShapeILi32ELi16ELi16ELi1EEEfNS0_13LinearScalingIfNS0_19FragmentMultiplyAddIfEEEEfS7_NS6_ILi16ELi16ELi16ELi1EEELi8ELi8EiNS0_20WmmaGemmTraitsHelperILS5_0ELS5_0ES7_ffSB_S7_SC_Li8ELi8EiEEEEEEEEvNT_6ParamsE'
GPGPU-Sim uArch: CTA/core = 12, limited by: regs
GPGPU-Sim uArch: Shader 2 bind to kernel 1 '_ZN7cutlass4gemm11gemm_kernelINS0_4GemmINS0_14WmmaGemmTraitsILNS_12MatrixLayout4KindE0ELS5_0ENS_5ShapeILi32ELi16ELi16ELi1EEEfNS0_13LinearScalingIfNS0_19FragmentMultiplyAddIfEEEEfS7_NS6_ILi16ELi16ELi16ELi1EEELi8ELi8EiNS0_20WmmaGemmTraitsHelperILS5_0ELS5_0ES7_ffSB_S7_SC_Li8ELi8EiEEEEEEEEvNT_6ParamsE'
GPGPU-Sim uArch: Shader 4 bind to kernel 1 '_ZN7cutlass4gemm11gemm_kernelINS0_4GemmINS0_14WmmaGemmTraitsILNS_12MatrixLayout4KindE0ELS5_0ENS_5ShapeILi32ELi16ELi16ELi1EEEfNS0_13LinearScalingIfNS0_19FragmentMultiplyAddIfEEEEfS7_NS6_ILi16ELi16ELi16ELi1EEELi8ELi8EiNS0_20WmmaGemmTraitsHelperILS5_0ELS5_0ES7_ffSB_S7_SC_Li8ELi8EiEEEEEEEEvNT_6ParamsE'
GPGPU-Sim uArch: Shader 6 bind to kernel 1 '_ZN7cutlass4gemm11gemm_kernelINS0_4GemmINS0_14WmmaGemmTraitsILNS_12MatrixLayout4KindE0ELS5_0ENS_5ShapeILi32ELi16ELi16ELi1EEEfNS0_13LinearScalingIfNS0_19FragmentMultiplyAddIfEEEEfS7_NS6_ILi16ELi16ELi16ELi1EEELi8ELi8EiNS0_20WmmaGemmTraitsHelperILS5_0ELS5_0ES7_ffSB_S7_SC_Li8ELi8EiEEEEEEEEvNT_6ParamsE'


GPGPU-Sim uArch: ERROR ** deadlock detected: last writeback core 6 @ gpu_sim_cycle 5900 (+ gpu_tot_sim_cycle 4294867296) (94100 cycles ago)
GPGPU-Sim uArch: DEADLOCK  shader cores no longer committing instructions [core(# threads)]:
GPGPU-Sim uArch: DEADLOCK  0(32) 1(0) 2(32) 3(0) 4(32) 5(0) 6(32) 7(0) 

Re-run the simulator in gdb and use debug routines in .gdbinit to debug this
