

        *** GPGPU-Sim Simulator Version 4.0.0  [build gpgpu-sim_git-commit-b1fdc6da937e638fc1cf735829613f1037bbbf1a_modified_0.0] ***


GPGPU-Sim PTX: simulation mode 0 (can change with PTX_SIM_MODE_FUNC environment variable:
               1=functional simulation only, 0=detailed performance simulator)
GPGPU-Sim PTX: overriding embedded ptx with ptx file (PTX_SIM_USE_PTX_FILE is set)
GPGPU-Sim: Configuration options:

-save_embedded_ptx                      0 # saves ptx files embedded in binary as <n>.ptx
-keep                                   0 # keep intermediate files created by GPGPU-Sim when interfacing with external programs
-gpgpu_ptx_save_converted_ptxplus                    0 # Saved converted ptxplus to a file
-gpgpu_occupancy_sm_number                   62 # The SM number to pass to ptxas when getting register usage for computing GPU occupancy. This parameter is required in the config.
-ptx_opcode_latency_int      4,13,4,5,145,32 # Opcode latencies for integers <ADD,MAX,MUL,MAD,DIV,SHFL>Default 1,1,19,25,145,32
-ptx_opcode_latency_fp          4,13,4,5,39 # Opcode latencies for single precision floating points <ADD,MAX,MUL,MAD,DIV>Default 1,1,1,1,30
-ptx_opcode_latency_dp         8,19,8,8,330 # Opcode latencies for double precision floating points <ADD,MAX,MUL,MAD,DIV>Default 8,8,8,8,335
-ptx_opcode_latency_sfu                    8 # Opcode latencies for SFU instructionsDefault 8
-ptx_opcode_latency_tesnor                   64 # Opcode latencies for Tensor instructionsDefault 64
-ptx_opcode_initiation_int          1,1,1,1,4,4 # Opcode initiation intervals for integers <ADD,MAX,MUL,MAD,DIV,SHFL>Default 1,1,4,4,32,4
-ptx_opcode_initiation_fp            1,2,1,1,4 # Opcode initiation intervals for single precision floating points <ADD,MAX,MUL,MAD,DIV>Default 1,1,1,1,5
-ptx_opcode_initiation_dp          8,8,8,8,130 # Opcode initiation intervals for double precision floating points <ADD,MAX,MUL,MAD,DIV>Default 8,8,8,8,130
-ptx_opcode_initiation_sfu                    4 # Opcode initiation intervals for sfu instructionsDefault 8
-ptx_opcode_initiation_tensor                   64 # Opcode initiation intervals for tensor instructionsDefault 64
-cdp_latency         7200,8000,100,12000,1600 # CDP API latency <cudaStreamCreateWithFlags, cudaGetParameterBufferV2_init_perWarp, cudaGetParameterBufferV2_perKernel, cudaLaunchDeviceV2_init_perWarp, cudaLaunchDevicV2_perKernel>Default 7200,8000,100,12000,1600
-network_mode                           1 # Interconnection network mode
-inter_config_file   config_pascal_islip.icnt # Interconnection network config file
-inct_in_buffer_limit                   64 # in_buffer_limit
-inct_out_buffer_limit                   64 # out_buffer_limit
-inct_subnets                           2 # subnets
-arbiter_algo                           1 # arbiter_algo
-gpgpu_ptx_use_cuobjdump                    1 # Use cuobjdump to extract ptx and sass from binaries
-gpgpu_experimental_lib_support                    0 # Try to extract code from cuda libraries [Broken because of unknown cudaGetExportTable]
-checkpoint_option                      0 #  checkpointing flag (0 = no checkpoint)
-checkpoint_kernel                      1 #  checkpointing during execution of which kernel (1- 1st kernel)
-checkpoint_CTA                         0 #  checkpointing after # of CTA (< less than total CTA)
-resume_option                          0 #  resume flag (0 = no resume)
-resume_kernel                          0 #  Resume from which kernel (1= 1st kernel)
-resume_CTA                             0 #  resume from which CTA 
-checkpoint_CTA_t                       0 #  resume from which CTA 
-checkpoint_insn_Y                      0 #  resume from which CTA 
-gpgpu_ptx_convert_to_ptxplus                    0 # Convert SASS (native ISA) to ptxplus and run ptxplus
-gpgpu_ptx_force_max_capability                   61 # Force maximum compute capability
-gpgpu_ptx_inst_debug_to_file                    0 # Dump executed instructions' debug information to file
-gpgpu_ptx_inst_debug_file       inst_debug.txt # Executed instructions' debug output file
-gpgpu_ptx_inst_debug_thread_uid                    1 # Thread UID for executed instructions' debug output
-gpgpu_simd_model                       1 # 1 = post-dominator
-gpgpu_shader_core_pipeline              1024:32 # shader core pipeline config, i.e., {<nthread>:<warpsize>}
-gpgpu_tex_cache:l1  N:16:128:24,L:R:m:N:L,T:128:4,128:2 # per-shader L1 texture cache  (READ-ONLY) config  {<nsets>:<bsize>:<assoc>,<rep>:<wr>:<alloc>:<wr_alloc>,<mshr>:<N>:<merge>,<mq>:<rf>}
-gpgpu_const_cache:l1 N:128:64:2,L:R:f:N:L,S:2:64,4 # per-shader L1 constant memory cache  (READ-ONLY) config  {<nsets>:<bsize>:<assoc>,<rep>:<wr>:<alloc>:<wr_alloc>,<mshr>:<N>:<merge>,<mq>} 
-gpgpu_cache:il1     N:8:128:4,L:R:f:N:L,S:2:48,4 # shader L1 instruction cache config  {<nsets>:<bsize>:<assoc>,<rep>:<wr>:<alloc>:<wr_alloc>,<mshr>:<N>:<merge>,<mq>} 
-gpgpu_cache:dl1     S:4:128:48,L:L:s:N:L,A:256:8,16:0,32 # per-shader L1 data cache config  {<nsets>:<bsize>:<assoc>,<rep>:<wr>:<alloc>:<wr_alloc>,<mshr>:<N>:<merge>,<mq> | none}
-l1_banks                               1 # The number of L1 cache banks
-l1_latency                            82 # L1 Hit Latency
-smem_latency                          24 # smem Latency
-gpgpu_cache:dl1PrefL1 S:4:128:48,L:L:s:N:L,A:256:8,16:0,32 # per-shader L1 data cache config  {<nsets>:<bsize>:<assoc>,<rep>:<wr>:<alloc>:<wr_alloc>,<mshr>:<N>:<merge>,<mq> | none}
-gpgpu_cache:dl1PrefShared S:4:128:48,L:L:s:N:L,A:256:8,16:0,32 # per-shader L1 data cache config  {<nsets>:<bsize>:<assoc>,<rep>:<wr>:<alloc>:<wr_alloc>,<mshr>:<N>:<merge>,<mq> | none}
-gmem_skip_L1D                          1 # global memory access skip L1D cache (implements -Xptxas -dlcm=cg, default=no skip)
-gpgpu_perfect_mem                      0 # enable perfect memory mode (no cache miss)
-n_regfile_gating_group                    4 # group of lanes that should be read/written together)
-gpgpu_clock_gated_reg_file                    0 # enable clock gated reg file for power calculations
-gpgpu_clock_gated_lanes                    0 # enable clock gated lanes for power calculations
-gpgpu_shader_registers                32768 # Number of registers per shader core. Limits number of concurrent CTAs. (default 8192)
-gpgpu_registers_per_block                 8192 # Maximum number of registers per CTA. (default 8192)
-gpgpu_ignore_resources_limitation                    1 # gpgpu_ignore_resources_limitation (default 0)
-gpgpu_shader_cta                      16 # Maximum number of concurrent CTAs in shader (default 8)
-gpgpu_num_cta_barriers                   16 # Maximum number of named barriers per CTA (default 16)
-gpgpu_n_clusters                      28 # number of processing clusters
-gpgpu_n_cores_per_cluster                    2 # number of simd cores per cluster
-gpgpu_n_cluster_ejection_buffer_size                   32 # number of packets in ejection buffer
-gpgpu_n_ldst_response_buffer_size                    2 # number of response packets in ld/st unit ejection buffer
-gpgpu_shmem_per_block                49152 # Size of shared memory per thread block or CTA (default 48kB)
-gpgpu_shmem_size                   49152 # Size of shared memory per shader core (default 16kB)
-adaptive_cache_config                    0 # adaptive_cache_config
-gpgpu_shmem_sizeDefault                49152 # Size of shared memory per shader core (default 16kB)
-gpgpu_shmem_size_PrefL1                49152 # Size of shared memory per shader core (default 16kB)
-gpgpu_shmem_size_PrefShared                49152 # Size of shared memory per shader core (default 16kB)
-gpgpu_shmem_num_banks                   32 # Number of banks in the shared memory in each shader core (default 16)
-gpgpu_shmem_limited_broadcast                    0 # Limit shared memory to do one broadcast per cycle (default on)
-gpgpu_shmem_warp_parts                    1 # Number of portions a warp is divided into for shared memory bank conflict check 
-mem_unit_ports                         1 # The number of memory transactions allowed per core cycle
-gpgpu_shmem_warp_parts                    1 # Number of portions a warp is divided into for shared memory bank conflict check 
-gpgpu_warpdistro_shader                   -1 # Specify which shader core to collect the warp size distribution from
-gpgpu_warp_issue_shader                    0 # Specify which shader core to collect the warp issue distribution from
-gpgpu_local_mem_map                    1 # Mapping from local memory space address to simulated GPU physical address space (default = enabled)
-gpgpu_num_reg_banks                   32 # Number of register banks (default = 8)
-gpgpu_reg_bank_use_warp_id                    0 # Use warp ID in mapping registers to banks (default = off)
-sub_core_model                         0 # Sub Core Volta/Pascal model (default = off)
-enable_specialized_operand_collector                    1 # enable_specialized_operand_collector
-gpgpu_operand_collector_num_units_sp                   12 # number of collector units (default = 4)
-gpgpu_operand_collector_num_units_dp                    6 # number of collector units (default = 0)
-gpgpu_operand_collector_num_units_sfu                    6 # number of collector units (default = 4)
-gpgpu_operand_collector_num_units_int                    0 # number of collector units (default = 0)
-gpgpu_operand_collector_num_units_tensor_core                    4 # number of collector units (default = 4)
-gpgpu_operand_collector_num_units_mem                    8 # number of collector units (default = 2)
-gpgpu_operand_collector_num_units_gen                    0 # number of collector units (default = 0)
-gpgpu_operand_collector_num_in_ports_sp                    2 # number of collector unit in ports (default = 1)
-gpgpu_operand_collector_num_in_ports_dp                    1 # number of collector unit in ports (default = 0)
-gpgpu_operand_collector_num_in_ports_sfu                    2 # number of collector unit in ports (default = 1)
-gpgpu_operand_collector_num_in_ports_int                    0 # number of collector unit in ports (default = 0)
-gpgpu_operand_collector_num_in_ports_tensor_core                    1 # number of collector unit in ports (default = 1)
-gpgpu_operand_collector_num_in_ports_mem                    1 # number of collector unit in ports (default = 1)
-gpgpu_operand_collector_num_in_ports_gen                    0 # number of collector unit in ports (default = 0)
-gpgpu_operand_collector_num_out_ports_sp                    2 # number of collector unit in ports (default = 1)
-gpgpu_operand_collector_num_out_ports_dp                    1 # number of collector unit in ports (default = 0)
-gpgpu_operand_collector_num_out_ports_sfu                    2 # number of collector unit in ports (default = 1)
-gpgpu_operand_collector_num_out_ports_int                    0 # number of collector unit in ports (default = 0)
-gpgpu_operand_collector_num_out_ports_tensor_core                    1 # number of collector unit in ports (default = 1)
-gpgpu_operand_collector_num_out_ports_mem                    1 # number of collector unit in ports (default = 1)
-gpgpu_operand_collector_num_out_ports_gen                    0 # number of collector unit in ports (default = 0)
-gpgpu_coalesce_arch                   61 # Coalescing arch (GT200 = 13, Fermi = 20)
-gpgpu_num_sched_per_core                    2 # Number of warp schedulers per core
-gpgpu_max_insn_issue_per_warp                    2 # Max number of instructions that can be issued per warp in one cycle by scheduler (either 1 or 2)
-gpgpu_dual_issue_diff_exec_units                    1 # should dual issue use two different execution unit resources (Default = 1)
-gpgpu_simt_core_sim_order                    1 # Select the simulation order of cores in a cluster (0=Fix, 1=Round-Robin)
-gpgpu_pipeline_widths 2,1,0,2,1,2,1,0,2,1,5 # Pipeline widths ID_OC_SP,ID_OC_DP,ID_OC_INT,ID_OC_SFU,ID_OC_MEM,OC_EX_SP,OC_EX_DP,OC_EX_INT,OC_EX_SFU,OC_EX_MEM,EX_WB,ID_OC_TENSOR_CORE,OC_EX_TENSOR_CORE
-gpgpu_tensor_core_avail                    0 # Tensor Core Available (default=0)
-gpgpu_num_sp_units                     2 # Number of SP units (default=1)
-gpgpu_num_dp_units                     1 # Number of DP units (default=0)
-gpgpu_num_int_units                    0 # Number of INT units (default=0)
-gpgpu_num_sfu_units                    2 # Number of SF units (default=1)
-gpgpu_num_tensor_core_units                    1 # Number of tensor_core units (default=1)
-gpgpu_num_mem_units                    1 # Number if ldst units (default=1) WARNING: not hooked up to anything
-gpgpu_scheduler                      gto # Scheduler configuration: < lrr | gto | two_level_active > If two_level_active:<num_active_warps>:<inner_prioritization>:<outer_prioritization>For complete list of prioritization values see shader.h enum scheduler_prioritization_typeDefault: gto
-gpgpu_concurrent_kernel_sm                    0 # Support concurrent kernels on a SM (default = disabled)
-perf_sim_memcpy                        1 # Fill the L2 cache on memcpy
-simple_dram_model                      0 # simple_dram_model with fixed latency and BW
-gpgpu_dram_scheduler                    1 # 0 = fifo, 1 = FR-FCFS (defaul)
-gpgpu_dram_partition_queues          32:32:32:32 # i2$:$2d:d2$:$2i
-l2_ideal                               0 # Use a ideal L2 cache that always hit
-gpgpu_cache:dl2     S:64:128:16,L:B:m:L:L,A:256:64,16:0,32 # unified banked L2 data cache config  {<nsets>:<bsize>:<assoc>,<rep>:<wr>:<alloc>:<wr_alloc>,<mshr>:<N>:<merge>,<mq>}
-gpgpu_cache:dl2_texture_only                    0 # L2 cache used for texture only
-gpgpu_n_mem                           12 # number of memory modules (e.g. memory controllers) in gpu
-gpgpu_n_sub_partition_per_mchannel                    2 # number of memory subpartition in each memory module
-gpgpu_n_mem_per_ctrlr                    1 # number of memory chips per memory controller
-gpgpu_memlatency_stat                   14 # track and display latency statistics 0x2 enables MC, 0x4 enables queue logs
-gpgpu_frfcfs_dram_sched_queue_size                   64 # 0 = unlimited (default); # entries per chip
-gpgpu_dram_return_queue_size                   64 # 0 = unlimited (default); # entries per chip
-gpgpu_dram_buswidth                    4 # default = 4 bytes (8 bytes per cycle at DDR)
-gpgpu_dram_burst_length                    8 # Burst length of each DRAM request (default = 4 data bus cycle)
-dram_data_command_freq_ratio                    4 # Frequency ratio between DRAM data bus and command bus (default = 2 times, i.e. DDR)
-gpgpu_dram_timing_opt nbk=16:CCD=2:RRD=8:RCD=16:RAS=37:RP=16:RC=52: CL=16:WL=6:CDLR=7:WR=16:nbkgrp=4:CCDL=4:RTPL=3 # DRAM timing parameters = {nbk:tCCD:tRRD:tRCD:tRAS:tRP:tRC:CL:WL:tCDLR:tWR:nbkgrp:tCCDL:tRTPL}
-rop_latency                          120 # ROP queue latency (default 85)
-dram_latency                         100 # DRAM latency (default 30)
-dual_bus_interface                     0 # dual_bus_interface (default = 0) 
-dram_bnk_indexing_policy                    0 # dram_bnk_indexing_policy (0 = normal indexing, 1 = Xoring with the higher bits) (Default = 0)
-dram_bnkgrp_indexing_policy                    1 # dram_bnkgrp_indexing_policy (0 = take higher bits, 1 = take lower bits) (Default = 0)
-Seperate_Write_Queue_Enable                    0 # Seperate_Write_Queue_Enable
-Write_Queue_Size                32:28:16 # Write_Queue_Size
-Elimnate_rw_turnaround                    0 # elimnate_rw_turnaround i.e set tWTR and tRTW = 0
-icnt_flit_size                        40 # icnt_flit_size
-gpgpu_mem_addr_mapping dramid@8;00000000.00000000.00000000.00000000.0000RRRR.RRRRRRRR.RBBBCCCC.BCCSSSSS # mapping memory address to dram model {dramid@<start bit>;<memory address map>}
-gpgpu_mem_addr_test                    0 # run sweep test to check address mapping for aliased address
-gpgpu_mem_address_mask                    1 # 0 = old addressing mask, 1 = new addressing mask, 2 = new add. mask + flipped bank sel and chip sel bits
-memory_partition_indexing                    0 # 0 = no indexing, 1 = bitwise xoring, 2 = IPoly, 3 = custom indexing
-gpuwattch_xml_file         gpuwattch.xml # GPUWattch XML file
-power_simulation_enabled                    0 # Turn on power simulator (1=On, 0=Off)
-power_per_cycle_dump                    0 # Dump detailed power output each cycle
-power_trace_enabled                    0 # produce a file for the power trace (1=On, 0=Off)
-power_trace_zlevel                     6 # Compression level of the power trace output log (0=no comp, 9=highest)
-steady_power_levels_enabled                    0 # produce a file for the steady power levels (1=On, 0=Off)
-steady_state_definition                  8:4 # allowed deviation:number of samples
-gpgpu_max_cycle                        0 # terminates gpu simulation early (0 = no limit)
-gpgpu_max_insn                         0 # terminates gpu simulation early (0 = no limit)
-gpgpu_max_cta                          0 # terminates gpu simulation early (0 = no limit)
-gpgpu_max_completed_cta                    0 # terminates gpu simulation early (0 = no limit)
-gpgpu_runtime_stat                   500 # display runtime statistics such as dram utilization {<freq>:<flag>}
-liveness_message_freq                    1 # Minimum number of seconds between simulation liveness messages (0 = always print)
-gpgpu_compute_capability_major                    6 # Major compute capability version number
-gpgpu_compute_capability_minor                    1 # Minor compute capability version number
-gpgpu_flush_l1_cache                    1 # Flush L1 cache at the end of each kernel call
-gpgpu_flush_l2_cache                    0 # Flush L2 cache at the end of each kernel call
-gpgpu_deadlock_detect                    1 # Stop the simulation at deadlock (1=on (default), 0=off)
-gpgpu_ptx_instruction_classification                    0 # if enabled will classify ptx instruction types per kernel (Max 255 kernels now)
-gpgpu_ptx_sim_mode                     0 # Select between Performance (default) or Functional simulation (1)
-gpgpu_clock_domains 1417.0:1417.0:1417.0:2500.0 # Clock Domain Frequencies in MhZ {<Core Clock>:<ICNT Clock>:<L2 Clock>:<DRAM Clock>}
-gpgpu_max_concurrent_kernel                    8 # maximum kernels that can run concurrently on GPU
-gpgpu_cflog_interval                    0 # Interval between each snapshot in control flow logger
-visualizer_enabled                     0 # Turn on visualizer output (1=On, 0=Off)
-visualizer_outputfile                 NULL # Specifies the output log file for visualizer
-visualizer_zlevel                      6 # Compression level of the visualizer output log (0=no comp, 9=highest)
-gpgpu_stack_size_limit                 1024 # GPU thread stack size
-gpgpu_heap_size_limit              8388608 # GPU malloc heap size 
-gpgpu_runtime_sync_depth_limit                    2 # GPU device runtime synchronize depth
-gpgpu_runtime_pending_launch_count_limit                 2048 # GPU device runtime pending launch count
-trace_enabled                          0 # Turn on traces
-trace_components                    none # comma seperated list of traces to enable. Complete list found in trace_streams.tup. Default none
-trace_sampling_core                    0 # The core which is printed using CORE_DPRINTF. Default 0
-trace_sampling_memory_partition                   -1 # The memory partition which is printed using MEMPART_DPRINTF. Default -1 (i.e. all)
-enable_ptx_file_line_stats                    1 # Turn on PTX source line statistic profiling. (1 = On)
-ptx_line_stats_filename gpgpu_inst_stats.txt # Output file for PTX source line statistics.
-gpgpu_kernel_launch_latency                    0 # Kernel launch latency in cycles. Default: 0
-gpgpu_cdp_enabled                      0 # Turn on CDP
DRAM Timing Options:
nbk                                    16 # number of banks
CCD                                     2 # column to column delay
RRD                                     8 # minimal delay between activation of rows in different banks
RCD                                    16 # row to column delay
RAS                                    37 # time needed to activate row
RP                                     16 # time needed to precharge (deactivate) row
RC                                     52 # row cycle time
CDLR                                    7 # switching from write to read (changes tWTR)
WR                                     16 # last data-in to row precharge
CL                                     16 # CAS latency
WL                                      6 # Write latency
nbkgrp                                  4 # number of bank groups
CCDL                                    4 # column to column delay between accesses to different bank groups
RTPL                                    3 # read to precharge delay between accesses to different bank groups
Total number of memory sub partition = 24
addr_dec_mask[CHIP]  = 0000000000000000 	high:64 low:0
addr_dec_mask[BK]    = 0000000000007080 	high:15 low:7
addr_dec_mask[ROW]   = 000000000fff8000 	high:28 low:15
addr_dec_mask[COL]   = 0000000000000f7f 	high:12 low:0
addr_dec_mask[BURST] = 000000000000001f 	high:5 low:0
sub_partition_id_mask = 0000000000000080
GPGPU-Sim uArch: clock freqs: 1417000000.000000:1417000000.000000:1417000000.000000:2500000000.000000
GPGPU-Sim uArch: clock periods: 0.00000000070571630205:0.00000000070571630205:0.00000000070571630205:0.00000000040000000000
*** Initializing Memory Statistics ***
GPGPU-Sim uArch: interconnect node map (shaderID+MemID to icntID)
GPGPU-Sim uArch: Memory nodes ID start from index: 28
GPGPU-Sim uArch:    0   1   2   3   4   5   6
GPGPU-Sim uArch:    7   8   9  10  11  12  13
GPGPU-Sim uArch:   14  15  16  17  18  19  20
GPGPU-Sim uArch:   21  22  23  24  25  26  27
GPGPU-Sim uArch:   28  29  30  31  32  33  34
GPGPU-Sim uArch:   35  36  37  38  39  40  41
GPGPU-Sim uArch:   42  43  44  45  46  47  48
GPGPU-Sim uArch:   49  50  51
GPGPU-Sim uArch: interconnect node reverse map (icntID to shaderID+MemID)
GPGPU-Sim uArch: Memory nodes start from ID: 28
GPGPU-Sim uArch:    0   1   2   3   4   5   6
GPGPU-Sim uArch:    7   8   9  10  11  12  13
GPGPU-Sim uArch:   14  15  16  17  18  19  20
GPGPU-Sim uArch:   21  22  23  24  25  26  27
GPGPU-Sim uArch:   28  29  30  31  32  33  34
GPGPU-Sim uArch:   35  36  37  38  39  40  41
GPGPU-Sim uArch:   42  43  44  45  46  47  48
GPGPU-Sim uArch:   49  50  51
f650be438d5fd4aff62a8d912c3ceb7c  /home/ee557/Desktop/p4/cutlass-gpgpu-sim/cutlass-test
Extracting PTX file and ptxas options    1: cutlass-test.1.sm_70.ptx -arch=sm_70
GPGPU-Sim uArch: performance model initialization complete.
self exe links to: /home/ee557/Desktop/p4/cutlass-gpgpu-sim/cutlass-test
self exe links to: /home/ee557/Desktop/p4/cutlass-gpgpu-sim/cutlass-test
9.1
GPGPU-Sim PTX: __cudaRegisterFatBinary, fat_cubin_handle = 1, filename=default
self exe links to: /home/ee557/Desktop/p4/cutlass-gpgpu-sim/cutlass-test
Running md5sum using "md5sum /home/ee557/Desktop/p4/cutlass-gpgpu-sim/cutlass-test "
self exe links to: /home/ee557/Desktop/p4/cutlass-gpgpu-sim/cutlass-test
Extracting specific PTX file named cutlass-test.1.sm_70.ptx 
GPGPU-Sim PTX: __cudaRegisterFunction _ZN7cutlass4gemm11gemm_kernelINS0_4GemmINS0_14WmmaGemmTraitsILNS_12MatrixLayout4KindE0ELS5_1ENS_5ShapeILi32ELi128ELi128ELi1EEEfNS0_13LinearScalingIfNS0_19FragmentMultiplyAddIfEEEEfNS6_ILi32ELi32ELi64ELi1EEENS6_ILi16ELi16ELi16ELi1EEELi8ELi8EiNS0_20WmmaGemmTraitsHelperILS5_0ELS5_1ES7_ffSB_SC_SD_Li8ELi8EiEEEEEEEEvNT_6ParamsE : hostFun 0x0x40312e, fat_cubin_handle = 1
GPGPU-Sim PTX: Parsing cutlass-test.1.sm_70.ptx
GPGPU-Sim PTX: allocating stack frame region for .param "__assertfail_param_0" from 0x0 to 0x8
GPGPU-Sim PTX: allocating stack frame region for .param "__assertfail_param_1" from 0x8 to 0x10
GPGPU-Sim PTX: allocating stack frame region for .param "__assertfail_param_2" from 0x10 to 0x14
GPGPU-Sim PTX: allocating stack frame region for .param "__assertfail_param_3" from 0x14 to 0x1c
GPGPU-Sim PTX: allocating stack frame region for .param "__assertfail_param_4" from 0x1c to 0x24
GPGPU-Sim PTX: allocating global region for "__unnamed_1" from 0x100 to 0x190 (global memory space)
GPGPU-Sim PTX: allocating global region for "__unnamed_2" from 0x200 to 0x28f (global memory space)
GPGPU-Sim PTX: allocating global region for "$str" from 0x300 to 0x30f (global memory space)
GPGPU-Sim PTX: allocating global region for "$str1" from 0x380 to 0x395 (global memory space)
GPGPU-Sim PTX: allocating shared region for "_ZN7cutlass4gemm11gemm_kernelINS0_4GemmINS0_14WmmaGemmTraitsILNS_12MatrixLayout4KindE0ELS5_1ENS_5ShapeILi32ELi128ELi128ELi1EEEfNS0_13LinearScalingIfNS0_19FragmentMultiplyAddIfEEEEfNS6_ILi32ELi32ELi64ELi1EEENS6_ILi16ELi16ELi16ELi1EEELi8ELi8EiNS0_20WmmaGemmTraitsHelperILS5_0ELS5_1ES7_ffSB_SC_SD_Li8ELi8EiEEEEEEEEvNT_6ParamsE$__cuda_local_var_31507_57_non_const_shared_storage" from 0x0 to 0x8000 (shared memory space)
GPGPU-Sim PTX: allocating stack frame region for .param "param0" from 0x0 to 0x8
GPGPU-Sim PTX: allocating stack frame region for .param "param1" from 0x8 to 0x10
GPGPU-Sim PTX: allocating stack frame region for .param "param2" from 0x10 to 0x14
GPGPU-Sim PTX: allocating stack frame region for .param "param3" from 0x14 to 0x1c
GPGPU-Sim PTX: allocating stack frame region for .param "param4" from 0x1c to 0x24
GPGPU-Sim PTX: allocating stack frame region for .param "param0" from 0x24 to 0x2c
GPGPU-Sim PTX: allocating stack frame region for .param "param1" from 0x2c to 0x34
GPGPU-Sim PTX: allocating stack frame region for .param "param2" from 0x34 to 0x38
GPGPU-Sim PTX: allocating stack frame region for .param "param3" from 0x38 to 0x40
GPGPU-Sim PTX: allocating stack frame region for .param "param4" from 0x40 to 0x48
GPGPU-Sim PTX: allocating stack frame region for .param "param0" from 0x48 to 0x50
GPGPU-Sim PTX: allocating stack frame region for .param "param1" from 0x50 to 0x58
GPGPU-Sim PTX: allocating stack frame region for .param "param2" from 0x58 to 0x5c
GPGPU-Sim PTX: allocating stack frame region for .param "param3" from 0x5c to 0x64
GPGPU-Sim PTX: allocating stack frame region for .param "param4" from 0x64 to 0x6c
GPGPU-Sim PTX: allocating stack frame region for .param "param0" from 0x6c to 0x74
GPGPU-Sim PTX: allocating stack frame region for .param "param1" from 0x74 to 0x7c
GPGPU-Sim PTX: allocating stack frame region for .param "param2" from 0x7c to 0x80
GPGPU-Sim PTX: allocating stack frame region for .param "param3" from 0x80 to 0x88
GPGPU-Sim PTX: allocating stack frame region for .param "param4" from 0x88 to 0x90
GPGPU-Sim PTX: allocating stack frame region for .param "param0" from 0x90 to 0x98
GPGPU-Sim PTX: allocating stack frame region for .param "param1" from 0x98 to 0xa0
GPGPU-Sim PTX: allocating stack frame region for .param "param2" from 0xa0 to 0xa4
GPGPU-Sim PTX: allocating stack frame region for .param "param3" from 0xa4 to 0xac
GPGPU-Sim PTX: allocating stack frame region for .param "param4" from 0xac to 0xb4
GPGPU-Sim PTX: allocating stack frame region for .param "param0" from 0xb4 to 0xbc
GPGPU-Sim PTX: allocating stack frame region for .param "param1" from 0xbc to 0xc4
GPGPU-Sim PTX: allocating stack frame region for .param "param2" from 0xc4 to 0xc8
GPGPU-Sim PTX: allocating stack frame region for .param "param3" from 0xc8 to 0xd0
GPGPU-Sim PTX: allocating stack frame region for .param "param4" from 0xd0 to 0xd8
GPGPU-Sim PTX: allocating stack frame region for .param "param0" from 0xd8 to 0xe0
GPGPU-Sim PTX: allocating stack frame region for .param "param1" from 0xe0 to 0xe8
GPGPU-Sim PTX: allocating stack frame region for .param "param2" from 0xe8 to 0xec
GPGPU-Sim PTX: allocating stack frame region for .param "param3" from 0xec to 0xf4
GPGPU-Sim PTX: allocating stack frame region for .param "param4" from 0xf4 to 0xfc
GPGPU-Sim PTX: instruction assembly for function '_ZN7cutlass4gemm11gemm_kernelINS0_4GemmINS0_14WmmaGemmTraitsILNS_12MatrixLayout4KindE0ELS5_1ENS_5ShapeILi32ELi128ELi128ELi1EEEfNS0_13LinearScalingIfNS0_19FragmentMultiplyAddIfEEEEfNS6_ILi32ELi32ELi64ELi1EEENS6_ILi16ELi16ELi16ELi1EEELi8ELi8EiNS0_20WmmaGemmTraitsHelperILS5_0ELS5_1ES7_ffSB_SC_SD_Li8ELi8EiEEEEEEEEvNT_6ParamsE'...   done.
GPGPU-Sim PTX: finished parsing EMBEDDED .ptx file cutlass-test.1.sm_70.ptx
GPGPU-Sim PTX: loading globals with explicit initializers... 
GPGPU-Sim PTX:     initializing '__unnamed_1' ...  wrote 144 bytes
GPGPU-Sim PTX:     initializing '__unnamed_2' ...  wrote 143 bytes
GPGPU-Sim PTX:     initializing '$str' ...  wrote 15 bytes
GPGPU-Sim PTX:     initializing '$str1' ...  wrote 21 bytes
GPGPU-Sim PTX: finished loading globals (323 bytes total).
GPGPU-Sim PTX: loading constants with explicit initializers...  done.
GPGPU-Sim PTX: Loading PTXInfo from cutlass-test.1.sm_70.ptx
GPGPU-Sim PTX: Kernel '_ZN7cutlass4gemm11gemm_kernelINS0_4GemmINS0_14WmmaGemmTraitsILNS_12MatrixLayout4KindE0ELS5_1ENS_5ShapeILi32ELi128ELi128ELi1EEEfNS0_13LinearScalingIfNS0_19FragmentMultiplyAddIfEEEEfNS6_ILi32ELi32ELi64ELi1EEENS6_ILi16ELi16ELi16ELi1EEELi8ELi8EiNS0_20WmmaGemmTraitsHelperILS5_0ELS5_1ES7_ffSB_SC_SD_Li8ELi8EiEEEEEEEEvNT_6ParamsE' : regs=236, lmem=0, smem=32768, cmem=784
self exe links to: /home/ee557/Desktop/p4/cutlass-gpgpu-sim/cutlass-test
self exe links to: /home/ee557/Desktop/p4/cutlass-gpgpu-sim/cutlass-test
9.1
GPGPU-Sim PTX: __cudaRegisterFatBinary, fat_cubin_handle = 2, filename=default
GPGPU-Sim PTX: __cudaRegisterFunction __nv_static_51__38_cuda_device_runtime_compute_70_cpp1_ii_8b1a5d37__Z16memcpy_3d_deviceImLi1ELi1ELi1EEvPKhPhT_S3_S3_S3_S3_S3_S3_jjjjjjjjS3_S1_S2_ : hostFun 0x0x40a8d0, fat_cubin_handle = 2
Warning: cannot find deviceFun __nv_static_51__38_cuda_device_runtime_compute_70_cpp1_ii_8b1a5d37__Z16memcpy_3d_deviceImLi1ELi1ELi1EEvPKhPhT_S3_S3_S3_S3_S3_S3_jjjjjjjjS3_S1_S2_
GPGPU-Sim PTX: __cudaRegisterFunction __nv_static_51__38_cuda_device_runtime_compute_70_cpp1_ii_8b1a5d37__Z16memcpy_3d_deviceImLi1ELi1ELi0EEvPKhPhT_S3_S3_S3_S3_S3_S3_jjjjjjjjS3_S1_S2_ : hostFun 0x0x40ab60, fat_cubin_handle = 2
Warning: cannot find deviceFun __nv_static_51__38_cuda_device_runtime_compute_70_cpp1_ii_8b1a5d37__Z16memcpy_3d_deviceImLi1ELi1ELi0EEvPKhPhT_S3_S3_S3_S3_S3_S3_jjjjjjjjS3_S1_S2_
GPGPU-Sim PTX: __cudaRegisterFunction __nv_static_51__38_cuda_device_runtime_compute_70_cpp1_ii_8b1a5d37__Z16memcpy_3d_deviceImLi1ELi0ELi1EEvPKhPhT_S3_S3_S3_S3_S3_S3_jjjjjjjjS3_S1_S2_ : hostFun 0x0x40adf0, fat_cubin_handle = 2
Warning: cannot find deviceFun __nv_static_51__38_cuda_device_runtime_compute_70_cpp1_ii_8b1a5d37__Z16memcpy_3d_deviceImLi1ELi0ELi1EEvPKhPhT_S3_S3_S3_S3_S3_S3_jjjjjjjjS3_S1_S2_
GPGPU-Sim PTX: __cudaRegisterFunction __nv_static_51__38_cuda_device_runtime_compute_70_cpp1_ii_8b1a5d37__Z16memcpy_3d_deviceImLi1ELi0ELi0EEvPKhPhT_S3_S3_S3_S3_S3_S3_jjjjjjjjS3_S1_S2_ : hostFun 0x0x40b080, fat_cubin_handle = 2
Warning: cannot find deviceFun __nv_static_51__38_cuda_device_runtime_compute_70_cpp1_ii_8b1a5d37__Z16memcpy_3d_deviceImLi1ELi0ELi0EEvPKhPhT_S3_S3_S3_S3_S3_S3_jjjjjjjjS3_S1_S2_
GPGPU-Sim PTX: __cudaRegisterFunction __nv_static_51__38_cuda_device_runtime_compute_70_cpp1_ii_8b1a5d37__Z16memcpy_3d_deviceImLi0ELi1ELi1EEvPKhPhT_S3_S3_S3_S3_S3_S3_jjjjjjjjS3_S1_S2_ : hostFun 0x0x40b310, fat_cubin_handle = 2
Warning: cannot find deviceFun __nv_static_51__38_cuda_device_runtime_compute_70_cpp1_ii_8b1a5d37__Z16memcpy_3d_deviceImLi0ELi1ELi1EEvPKhPhT_S3_S3_S3_S3_S3_S3_jjjjjjjjS3_S1_S2_
GPGPU-Sim PTX: __cudaRegisterFunction __nv_static_51__38_cuda_device_runtime_compute_70_cpp1_ii_8b1a5d37__Z16memcpy_3d_deviceImLi0ELi1ELi0EEvPKhPhT_S3_S3_S3_S3_S3_S3_jjjjjjjjS3_S1_S2_ : hostFun 0x0x40b5a0, fat_cubin_handle = 2
Warning: cannot find deviceFun __nv_static_51__38_cuda_device_runtime_compute_70_cpp1_ii_8b1a5d37__Z16memcpy_3d_deviceImLi0ELi1ELi0EEvPKhPhT_S3_S3_S3_S3_S3_S3_jjjjjjjjS3_S1_S2_
GPGPU-Sim PTX: __cudaRegisterFunction __nv_static_51__38_cuda_device_runtime_compute_70_cpp1_ii_8b1a5d37__Z16memcpy_3d_deviceImLi0ELi0ELi1EEvPKhPhT_S3_S3_S3_S3_S3_S3_jjjjjjjjS3_S1_S2_ : hostFun 0x0x40b830, fat_cubin_handle = 2
Warning: cannot find deviceFun __nv_static_51__38_cuda_device_runtime_compute_70_cpp1_ii_8b1a5d37__Z16memcpy_3d_deviceImLi0ELi0ELi1EEvPKhPhT_S3_S3_S3_S3_S3_S3_jjjjjjjjS3_S1_S2_
GPGPU-Sim PTX: __cudaRegisterFunction __nv_static_51__38_cuda_device_runtime_compute_70_cpp1_ii_8b1a5d37__Z16memcpy_3d_deviceImLi0ELi0ELi0EEvPKhPhT_S3_S3_S3_S3_S3_S3_jjjjjjjjS3_S1_S2_ : hostFun 0x0x40bac0, fat_cubin_handle = 2
Warning: cannot find deviceFun __nv_static_51__38_cuda_device_runtime_compute_70_cpp1_ii_8b1a5d37__Z16memcpy_3d_deviceImLi0ELi0ELi0EEvPKhPhT_S3_S3_S3_S3_S3_S3_jjjjjjjjS3_S1_S2_
GPGPU-Sim PTX: __cudaRegisterFunction __nv_static_51__38_cuda_device_runtime_compute_70_cpp1_ii_8b1a5d37__Z16memcpy_3d_deviceIjLi1ELi1ELi1EEvPKhPhT_S3_S3_S3_S3_S3_S3_jjjjjjjjS3_S1_S2_ : hostFun 0x0x40bd40, fat_cubin_handle = 2
Warning: cannot find deviceFun __nv_static_51__38_cuda_device_runtime_compute_70_cpp1_ii_8b1a5d37__Z16memcpy_3d_deviceIjLi1ELi1ELi1EEvPKhPhT_S3_S3_S3_S3_S3_S3_jjjjjjjjS3_S1_S2_
GPGPU-Sim PTX: __cudaRegisterFunction __nv_static_51__38_cuda_device_runtime_compute_70_cpp1_ii_8b1a5d37__Z16memcpy_3d_deviceIjLi1ELi1ELi0EEvPKhPhT_S3_S3_S3_S3_S3_S3_jjjjjjjjS3_S1_S2_ : hostFun 0x0x40bfc0, fat_cubin_handle = 2
Warning: cannot find deviceFun __nv_static_51__38_cuda_device_runtime_compute_70_cpp1_ii_8b1a5d37__Z16memcpy_3d_deviceIjLi1ELi1ELi0EEvPKhPhT_S3_S3_S3_S3_S3_S3_jjjjjjjjS3_S1_S2_
GPGPU-Sim PTX: __cudaRegisterFunction __nv_static_51__38_cuda_device_runtime_compute_70_cpp1_ii_8b1a5d37__Z16memcpy_3d_deviceIjLi1ELi0ELi1EEvPKhPhT_S3_S3_S3_S3_S3_S3_jjjjjjjjS3_S1_S2_ : hostFun 0x0x40c240, fat_cubin_handle = 2
Warning: cannot find deviceFun __nv_static_51__38_cuda_device_runtime_compute_70_cpp1_ii_8b1a5d37__Z16memcpy_3d_deviceIjLi1ELi0ELi1EEvPKhPhT_S3_S3_S3_S3_S3_S3_jjjjjjjjS3_S1_S2_
GPGPU-Sim PTX: __cudaRegisterFunction __nv_static_51__38_cuda_device_runtime_compute_70_cpp1_ii_8b1a5d37__Z16memcpy_3d_deviceIjLi1ELi0ELi0EEvPKhPhT_S3_S3_S3_S3_S3_S3_jjjjjjjjS3_S1_S2_ : hostFun 0x0x40c4c0, fat_cubin_handle = 2
Warning: cannot find deviceFun __nv_static_51__38_cuda_device_runtime_compute_70_cpp1_ii_8b1a5d37__Z16memcpy_3d_deviceIjLi1ELi0ELi0EEvPKhPhT_S3_S3_S3_S3_S3_S3_jjjjjjjjS3_S1_S2_
GPGPU-Sim PTX: __cudaRegisterFunction __nv_static_51__38_cuda_device_runtime_compute_70_cpp1_ii_8b1a5d37__Z16memcpy_3d_deviceIjLi0ELi1ELi1EEvPKhPhT_S3_S3_S3_S3_S3_S3_jjjjjjjjS3_S1_S2_ : hostFun 0x0x40c740, fat_cubin_handle = 2
Warning: cannot find deviceFun __nv_static_51__38_cuda_device_runtime_compute_70_cpp1_ii_8b1a5d37__Z16memcpy_3d_deviceIjLi0ELi1ELi1EEvPKhPhT_S3_S3_S3_S3_S3_S3_jjjjjjjjS3_S1_S2_
GPGPU-Sim PTX: __cudaRegisterFunction __nv_static_51__38_cuda_device_runtime_compute_70_cpp1_ii_8b1a5d37__Z16memcpy_3d_deviceIjLi0ELi1ELi0EEvPKhPhT_S3_S3_S3_S3_S3_S3_jjjjjjjjS3_S1_S2_ : hostFun 0x0x40c9c0, fat_cubin_handle = 2
Warning: cannot find deviceFun __nv_static_51__38_cuda_device_runtime_compute_70_cpp1_ii_8b1a5d37__Z16memcpy_3d_deviceIjLi0ELi1ELi0EEvPKhPhT_S3_S3_S3_S3_S3_S3_jjjjjjjjS3_S1_S2_
GPGPU-Sim PTX: __cudaRegisterFunction __nv_static_51__38_cuda_device_runtime_compute_70_cpp1_ii_8b1a5d37__Z16memcpy_3d_deviceIjLi0ELi0ELi1EEvPKhPhT_S3_S3_S3_S3_S3_S3_jjjjjjjjS3_S1_S2_ : hostFun 0x0x40cc40, fat_cubin_handle = 2
Warning: cannot find deviceFun __nv_static_51__38_cuda_device_runtime_compute_70_cpp1_ii_8b1a5d37__Z16memcpy_3d_deviceIjLi0ELi0ELi1EEvPKhPhT_S3_S3_S3_S3_S3_S3_jjjjjjjjS3_S1_S2_
GPGPU-Sim PTX: __cudaRegisterFunction __nv_static_51__38_cuda_device_runtime_compute_70_cpp1_ii_8b1a5d37__Z16memcpy_3d_deviceIjLi0ELi0ELi0EEvPKhPhT_S3_S3_S3_S3_S3_S3_jjjjjjjjS3_S1_S2_ : hostFun 0x0x40cec0, fat_cubin_handle = 2
Warning: cannot find deviceFun __nv_static_51__38_cuda_device_runtime_compute_70_cpp1_ii_8b1a5d37__Z16memcpy_3d_deviceIjLi0ELi0ELi0EEvPKhPhT_S3_S3_S3_S3_S3_S3_jjjjjjjjS3_S1_S2_
GPGPU-Sim PTX: __cudaRegisterFunction __nv_static_51__38_cuda_device_runtime_compute_70_cpp1_ii_8b1a5d37__Z16memset_3d_deviceImLi1ELi1ELi1EEvPhhjT_S1_S1_S1_S1_jjjjjjjS1_S0_ : hostFun 0x0x40d0e0, fat_cubin_handle = 2
Warning: cannot find deviceFun __nv_static_51__38_cuda_device_runtime_compute_70_cpp1_ii_8b1a5d37__Z16memset_3d_deviceImLi1ELi1ELi1EEvPhhjT_S1_S1_S1_S1_jjjjjjjS1_S0_
GPGPU-Sim PTX: __cudaRegisterFunction __nv_static_51__38_cuda_device_runtime_compute_70_cpp1_ii_8b1a5d37__Z16memset_3d_deviceImLi1ELi1ELi0EEvPhhjT_S1_S1_S1_S1_jjjjjjjS1_S0_ : hostFun 0x0x40d300, fat_cubin_handle = 2
Warning: cannot find deviceFun __nv_static_51__38_cuda_device_runtime_compute_70_cpp1_ii_8b1a5d37__Z16memset_3d_deviceImLi1ELi1ELi0EEvPhhjT_S1_S1_S1_S1_jjjjjjjS1_S0_
GPGPU-Sim PTX: __cudaRegisterFunction __nv_static_51__38_cuda_device_runtime_compute_70_cpp1_ii_8b1a5d37__Z16memset_3d_deviceImLi1ELi0ELi1EEvPhhjT_S1_S1_S1_S1_jjjjjjjS1_S0_ : hostFun 0x0x40d520, fat_cubin_handle = 2
Warning: cannot find deviceFun __nv_static_51__38_cuda_device_runtime_compute_70_cpp1_ii_8b1a5d37__Z16memset_3d_deviceImLi1ELi0ELi1EEvPhhjT_S1_S1_S1_S1_jjjjjjjS1_S0_
GPGPU-Sim PTX: __cudaRegisterFunction __nv_static_51__38_cuda_device_runtime_compute_70_cpp1_ii_8b1a5d37__Z16memset_3d_deviceImLi1ELi0ELi0EEvPhhjT_S1_S1_S1_S1_jjjjjjjS1_S0_ : hostFun 0x0x40d740, fat_cubin_handle = 2
Warning: cannot find deviceFun __nv_static_51__38_cuda_device_runtime_compute_70_cpp1_ii_8b1a5d37__Z16memset_3d_deviceImLi1ELi0ELi0EEvPhhjT_S1_S1_S1_S1_jjjjjjjS1_S0_
GPGPU-Sim PTX: __cudaRegisterFunction __nv_static_51__38_cuda_device_runtime_compute_70_cpp1_ii_8b1a5d37__Z16memset_3d_deviceImLi0ELi1ELi1EEvPhhjT_S1_S1_S1_S1_jjjjjjjS1_S0_ : hostFun 0x0x40d960, fat_cubin_handle = 2
Warning: cannot find deviceFun __nv_static_51__38_cuda_device_runtime_compute_70_cpp1_ii_8b1a5d37__Z16memset_3d_deviceImLi0ELi1ELi1EEvPhhjT_S1_S1_S1_S1_jjjjjjjS1_S0_
GPGPU-Sim PTX: __cudaRegisterFunction __nv_static_51__38_cuda_device_runtime_compute_70_cpp1_ii_8b1a5d37__Z16memset_3d_deviceImLi0ELi1ELi0EEvPhhjT_S1_S1_S1_S1_jjjjjjjS1_S0_ : hostFun 0x0x40db80, fat_cubin_handle = 2
Warning: cannot find deviceFun __nv_static_51__38_cuda_device_runtime_compute_70_cpp1_ii_8b1a5d37__Z16memset_3d_deviceImLi0ELi1ELi0EEvPhhjT_S1_S1_S1_S1_jjjjjjjS1_S0_
GPGPU-Sim PTX: __cudaRegisterFunction __nv_static_51__38_cuda_device_runtime_compute_70_cpp1_ii_8b1a5d37__Z16memset_3d_deviceImLi0ELi0ELi1EEvPhhjT_S1_S1_S1_S1_jjjjjjjS1_S0_ : hostFun 0x0x40dda0, fat_cubin_handle = 2
Warning: cannot find deviceFun __nv_static_51__38_cuda_device_runtime_compute_70_cpp1_ii_8b1a5d37__Z16memset_3d_deviceImLi0ELi0ELi1EEvPhhjT_S1_S1_S1_S1_jjjjjjjS1_S0_
GPGPU-Sim PTX: __cudaRegisterFunction __nv_static_51__38_cuda_device_runtime_compute_70_cpp1_ii_8b1a5d37__Z16memset_3d_deviceImLi0ELi0ELi0EEvPhhjT_S1_S1_S1_S1_jjjjjjjS1_S0_ : hostFun 0x0x40dfc0, fat_cubin_handle = 2
Warning: cannot find deviceFun __nv_static_51__38_cuda_device_runtime_compute_70_cpp1_ii_8b1a5d37__Z16memset_3d_deviceImLi0ELi0ELi0EEvPhhjT_S1_S1_S1_S1_jjjjjjjS1_S0_
GPGPU-Sim PTX: __cudaRegisterFunction __nv_static_51__38_cuda_device_runtime_compute_70_cpp1_ii_8b1a5d37__Z16memset_3d_deviceIjLi1ELi1ELi1EEvPhhjT_S1_S1_S1_S1_jjjjjjjS1_S0_ : hostFun 0x0x40e1e0, fat_cubin_handle = 2
Warning: cannot find deviceFun __nv_static_51__38_cuda_device_runtime_compute_70_cpp1_ii_8b1a5d37__Z16memset_3d_deviceIjLi1ELi1ELi1EEvPhhjT_S1_S1_S1_S1_jjjjjjjS1_S0_
GPGPU-Sim PTX: __cudaRegisterFunction __nv_static_51__38_cuda_device_runtime_compute_70_cpp1_ii_8b1a5d37__Z16memset_3d_deviceIjLi1ELi1ELi0EEvPhhjT_S1_S1_S1_S1_jjjjjjjS1_S0_ : hostFun 0x0x40e400, fat_cubin_handle = 2
Warning: cannot find deviceFun __nv_static_51__38_cuda_device_runtime_compute_70_cpp1_ii_8b1a5d37__Z16memset_3d_deviceIjLi1ELi1ELi0EEvPhhjT_S1_S1_S1_S1_jjjjjjjS1_S0_
GPGPU-Sim PTX: __cudaRegisterFunction __nv_static_51__38_cuda_device_runtime_compute_70_cpp1_ii_8b1a5d37__Z16memset_3d_deviceIjLi1ELi0ELi1EEvPhhjT_S1_S1_S1_S1_jjjjjjjS1_S0_ : hostFun 0x0x40e620, fat_cubin_handle = 2
Warning: cannot find deviceFun __nv_static_51__38_cuda_device_runtime_compute_70_cpp1_ii_8b1a5d37__Z16memset_3d_deviceIjLi1ELi0ELi1EEvPhhjT_S1_S1_S1_S1_jjjjjjjS1_S0_
GPGPU-Sim PTX: __cudaRegisterFunction __nv_static_51__38_cuda_device_runtime_compute_70_cpp1_ii_8b1a5d37__Z16memset_3d_deviceIjLi1ELi0ELi0EEvPhhjT_S1_S1_S1_S1_jjjjjjjS1_S0_ : hostFun 0x0x40e840, fat_cubin_handle = 2
Warning: cannot find deviceFun __nv_static_51__38_cuda_device_runtime_compute_70_cpp1_ii_8b1a5d37__Z16memset_3d_deviceIjLi1ELi0ELi0EEvPhhjT_S1_S1_S1_S1_jjjjjjjS1_S0_
GPGPU-Sim PTX: __cudaRegisterFunction __nv_static_51__38_cuda_device_runtime_compute_70_cpp1_ii_8b1a5d37__Z16memset_3d_deviceIjLi0ELi1ELi1EEvPhhjT_S1_S1_S1_S1_jjjjjjjS1_S0_ : hostFun 0x0x40ea60, fat_cubin_handle = 2
Warning: cannot find deviceFun __nv_static_51__38_cuda_device_runtime_compute_70_cpp1_ii_8b1a5d37__Z16memset_3d_deviceIjLi0ELi1ELi1EEvPhhjT_S1_S1_S1_S1_jjjjjjjS1_S0_
GPGPU-Sim PTX: __cudaRegisterFunction __nv_static_51__38_cuda_device_runtime_compute_70_cpp1_ii_8b1a5d37__Z16memset_3d_deviceIjLi0ELi1ELi0EEvPhhjT_S1_S1_S1_S1_jjjjjjjS1_S0_ : hostFun 0x0x40ec80, fat_cubin_handle = 2
Warning: cannot find deviceFun __nv_static_51__38_cuda_device_runtime_compute_70_cpp1_ii_8b1a5d37__Z16memset_3d_deviceIjLi0ELi1ELi0EEvPhhjT_S1_S1_S1_S1_jjjjjjjS1_S0_
GPGPU-Sim PTX: __cudaRegisterFunction __nv_static_51__38_cuda_device_runtime_compute_70_cpp1_ii_8b1a5d37__Z16memset_3d_deviceIjLi0ELi0ELi1EEvPhhjT_S1_S1_S1_S1_jjjjjjjS1_S0_ : hostFun 0x0x40eea0, fat_cubin_handle = 2
Warning: cannot find deviceFun __nv_static_51__38_cuda_device_runtime_compute_70_cpp1_ii_8b1a5d37__Z16memset_3d_deviceIjLi0ELi0ELi1EEvPhhjT_S1_S1_S1_S1_jjjjjjjS1_S0_
GPGPU-Sim PTX: __cudaRegisterFunction __nv_static_51__38_cuda_device_runtime_compute_70_cpp1_ii_8b1a5d37__Z16memset_3d_deviceIjLi0ELi0ELi0EEvPhhjT_S1_S1_S1_S1_jjjjjjjS1_S0_ : hostFun 0x0x40f0c0, fat_cubin_handle = 2
Warning: cannot find deviceFun __nv_static_51__38_cuda_device_runtime_compute_70_cpp1_ii_8b1a5d37__Z16memset_3d_deviceIjLi0ELi0ELi0EEvPhhjT_S1_S1_S1_S1_jjjjjjjS1_S0_
GPGPU-Sim PTX: __cudaRegisterVar: hostVar = 0x6a52e0; deviceAddress = __nv_static_51__38_cuda_device_runtime_compute_70_cpp1_ii_8b1a5d37_set_kernel32; deviceName = __nv_static_51__38_cuda_device_runtime_compute_70_cpp1_ii_8b1a5d37_set_kernel32
GPGPU-Sim PTX: __cudaRegisterVar: Registering const memory space of 64 bytes
GPGPU-Sim PTX registering constant __nv_static_51__38_cuda_device_runtime_compute_70_cpp1_ii_8b1a5d37_set_kernel32 (64 bytes) to name mapping
GPGPU-Sim PTX: __cudaRegisterVar: hostVar = 0x6a5320; deviceAddress = __nv_static_51__38_cuda_device_runtime_compute_70_cpp1_ii_8b1a5d37_set_kernel64; deviceName = __nv_static_51__38_cuda_device_runtime_compute_70_cpp1_ii_8b1a5d37_set_kernel64
GPGPU-Sim PTX: __cudaRegisterVar: Registering const memory space of 64 bytes
GPGPU-Sim PTX registering constant __nv_static_51__38_cuda_device_runtime_compute_70_cpp1_ii_8b1a5d37_set_kernel64 (64 bytes) to name mapping
GPGPU-Sim PTX: __cudaRegisterVar: hostVar = 0x6a5360; deviceAddress = __nv_static_51__38_cuda_device_runtime_compute_70_cpp1_ii_8b1a5d37_cpy_kernel32; deviceName = __nv_static_51__38_cuda_device_runtime_compute_70_cpp1_ii_8b1a5d37_cpy_kernel32
GPGPU-Sim PTX: __cudaRegisterVar: Registering const memory space of 64 bytes
GPGPU-Sim PTX registering constant __nv_static_51__38_cuda_device_runtime_compute_70_cpp1_ii_8b1a5d37_cpy_kernel32 (64 bytes) to name mapping
GPGPU-Sim PTX: __cudaRegisterVar: hostVar = 0x6a53a0; deviceAddress = __nv_static_51__38_cuda_device_runtime_compute_70_cpp1_ii_8b1a5d37_cpy_kernel64; deviceName = __nv_static_51__38_cuda_device_runtime_compute_70_cpp1_ii_8b1a5d37_cpy_kernel64
GPGPU-Sim PTX: __cudaRegisterVar: Registering const memory space of 64 bytes
GPGPU-Sim PTX registering constant __nv_static_51__38_cuda_device_runtime_compute_70_cpp1_ii_8b1a5d37_cpy_kernel64 (64 bytes) to name mapping
GPGPU-Sim PTX: __cudaRegisterVar: hostVar = 0x6a4500; deviceAddress = __nv_static_51__38_cuda_device_runtime_compute_70_cpp1_ii_8b1a5d37_cudartErrorTableArr; deviceName = __nv_static_51__38_cuda_device_runtime_compute_70_cpp1_ii_8b1a5d37_cudartErrorTableArr
GPGPU-Sim PTX: __cudaRegisterVar: Registering const memory space of 1992 bytes
GPGPU-Sim PTX registering global __nv_static_51__38_cuda_device_runtime_compute_70_cpp1_ii_8b1a5d37_cudartErrorTableArr hostVar to name mapping
GPGPU-Sim PTX: __cudaRegisterVar: hostVar = 0x6a52c0; deviceAddress = cudartErrorTable; deviceName = cudartErrorTable
GPGPU-Sim PTX: __cudaRegisterVar: Registering const memory space of 8 bytes
GPGPU-Sim PTX registering global cudartErrorTable hostVar to name mapping
GPGPU-Sim PTX: __cudaRegisterVar: hostVar = 0x411fc0; deviceAddress = cudartErrorTableEntryCount; deviceName = cudartErrorTableEntryCount
GPGPU-Sim PTX: __cudaRegisterVar: Registering const memory space of 4 bytes
GPGPU-Sim PTX registering global cudartErrorTableEntryCount hostVar to name mapping
GPGPU-Sim PTX: __cudaRegisterVar: hostVar = 0x411fe0; deviceAddress = __nv_static_51__38_cuda_device_runtime_compute_70_cpp1_ii_8b1a5d37_cudartErrorCnpMapArr; deviceName = __nv_static_51__38_cuda_device_runtime_compute_70_cpp1_ii_8b1a5d37_cudartErrorCnpMapArr
GPGPU-Sim PTX: __cudaRegisterVar: Registering const memory space of 104 bytes
GPGPU-Sim PTX registering global __nv_static_51__38_cuda_device_runtime_compute_70_cpp1_ii_8b1a5d37_cudartErrorCnpMapArr hostVar to name mapping
GPGPU-Sim PTX: __cudaRegisterVar: hostVar = 0x6a52c8; deviceAddress = cudartErrorCnpMap; deviceName = cudartErrorCnpMap
GPGPU-Sim PTX: __cudaRegisterVar: Registering const memory space of 8 bytes
GPGPU-Sim PTX registering global cudartErrorCnpMap hostVar to name mapping
GPGPU-Sim PTX: __cudaRegisterVar: hostVar = 0x411fc4; deviceAddress = cudartErrorCnpMapEntryCount; deviceName = cudartErrorCnpMapEntryCount
GPGPU-Sim PTX: __cudaRegisterVar: Registering const memory space of 4 bytes
GPGPU-Sim PTX registering global cudartErrorCnpMapEntryCount hostVar to name mapping
GPGPU-Sim PTX: __cudaRegisterVar: hostVar = 0x6a52d0; deviceAddress = __CNPRT_VERSION_NUMBER__; deviceName = __CNPRT_VERSION_NUMBER__
GPGPU-Sim PTX: __cudaRegisterVar: Registering const memory space of 4 bytes
GPGPU-Sim PTX registering global __CNPRT_VERSION_NUMBER__ hostVar to name mapping
GPGPU-Sim PTX: Setting up arguments for 432 bytes starting at 0x7ffca5ef1af0..

GPGPU-Sim PTX: cudaLaunch for 0x0x40312e (mode=performance simulation) on stream 0
GPGPU-Sim PTX: finding reconvergence points for '_ZN7cutlass4gemm11gemm_kernelINS0_4GemmINS0_14WmmaGemmTraitsILNS_12MatrixLayout4KindE0ELS5_1ENS_5ShapeILi32ELi128ELi128ELi1EEEfNS0_13LinearScalingIfNS0_19FragmentMultiplyAddIfEEEEfNS6_ILi32ELi32ELi64ELi1EEENS6_ILi16ELi16ELi16ELi1EEELi8ELi8EiNS0_20WmmaGemmTraitsHelperILS5_0ELS5_1ES7_ffSB_SC_SD_Li8ELi8EiEEEEEEEEvNT_6ParamsE'...
GPGPU-Sim PTX: Finding dominators for '_ZN7cutlass4gemm11gemm_kernelINS0_4GemmINS0_14WmmaGemmTraitsILNS_12MatrixLayout4KindE0ELS5_1ENS_5ShapeILi32ELi128ELi128ELi1EEEfNS0_13LinearScalingIfNS0_19FragmentMultiplyAddIfEEEEfNS6_ILi32ELi32ELi64ELi1EEENS6_ILi16ELi16ELi16ELi1EEELi8ELi8EiNS0_20WmmaGemmTraitsHelperILS5_0ELS5_1ES7_ffSB_SC_SD_Li8ELi8EiEEEEEEEEvNT_6ParamsE'...
GPGPU-Sim PTX: Finding immediate dominators for '_ZN7cutlass4gemm11gemm_kernelINS0_4GemmINS0_14WmmaGemmTraitsILNS_12MatrixLayout4KindE0ELS5_1ENS_5ShapeILi32ELi128ELi128ELi1EEEfNS0_13LinearScalingIfNS0_19FragmentMultiplyAddIfEEEEfNS6_ILi32ELi32ELi64ELi1EEENS6_ILi16ELi16ELi16ELi1EEELi8ELi8EiNS0_20WmmaGemmTraitsHelperILS5_0ELS5_1ES7_ffSB_SC_SD_Li8ELi8EiEEEEEEEEvNT_6ParamsE'...
GPGPU-Sim PTX: Finding postdominators for '_ZN7cutlass4gemm11gemm_kernelINS0_4GemmINS0_14WmmaGemmTraitsILNS_12MatrixLayout4KindE0ELS5_1ENS_5ShapeILi32ELi128ELi128ELi1EEEfNS0_13LinearScalingIfNS0_19FragmentMultiplyAddIfEEEEfNS6_ILi32ELi32ELi64ELi1EEENS6_ILi16ELi16ELi16ELi1EEELi8ELi8EiNS0_20WmmaGemmTraitsHelperILS5_0ELS5_1ES7_ffSB_SC_SD_Li8ELi8EiEEEEEEEEvNT_6ParamsE'...
GPGPU-Sim PTX: Finding immediate postdominators for '_ZN7cutlass4gemm11gemm_kernelINS0_4GemmINS0_14WmmaGemmTraitsILNS_12MatrixLayout4KindE0ELS5_1ENS_5ShapeILi32ELi128ELi128ELi1EEEfNS0_13LinearScalingIfNS0_19FragmentMultiplyAddIfEEEEfNS6_ILi32ELi32ELi64ELi1EEENS6_ILi16ELi16ELi16ELi1EEELi8ELi8EiNS0_20WmmaGemmTraitsHelperILS5_0ELS5_1ES7_ffSB_SC_SD_Li8ELi8EiEEEEEEEEvNT_6ParamsE'...
GPGPU-Sim PTX: pre-decoding instructions for '_ZN7cutlass4gemm11gemm_kernelINS0_4GemmINS0_14WmmaGemmTraitsILNS_12MatrixLayout4KindE0ELS5_1ENS_5ShapeILi32ELi128ELi128ELi1EEEfNS0_13LinearScalingIfNS0_19FragmentMultiplyAddIfEEEEfNS6_ILi32ELi32ELi64ELi1EEENS6_ILi16ELi16ELi16ELi1EEELi8ELi8EiNS0_20WmmaGemmTraitsHelperILS5_0ELS5_1ES7_ffSB_SC_SD_Li8ELi8EiEEEEEEEEvNT_6ParamsE'...
GPGPU-Sim PTX: reconvergence points for _ZN7cutlass4gemm11gemm_kernelINS0_4GemmINS0_14WmmaGemmTraitsILNS_12MatrixLayout4KindE0ELS5_1ENS_5ShapeILi32ELi128ELi128ELi1EEEfNS0_13LinearScalingIfNS0_19FragmentMultiplyAddIfEEEEfNS6_ILi32ELi32ELi64ELi1EEENS6_ILi16ELi16ELi16ELi1EEELi8ELi8EiNS0_20WmmaGemmTraitsHelperILS5_0ELS5_1ES7_ffSB_SC_SD_Li8ELi8EiEEEEEEEEvNT_6ParamsE...
GPGPU-Sim PTX:  1 (potential) branch divergence @  PC=0x158 (cutlass-test.1.sm_70.ptx:84) @%p7 bra BB0_2;
GPGPU-Sim PTX:    immediate post dominator      @  PC=0x1d0 (cutlass-test.1.sm_70.ptx:122) mov.u32 %r1082, %ctaid.y;
GPGPU-Sim PTX:  2 (potential) branch divergence @  PC=0x258 (cutlass-test.1.sm_70.ptx:139) @%p7 bra BB0_4;
GPGPU-Sim PTX:    immediate post dominator      @  PC=0x2d0 (cutlass-test.1.sm_70.ptx:177) setp.lt.s32%p14, %r23, 32;
GPGPU-Sim PTX:  3 (potential) branch divergence @  PC=0x2d8 (cutlass-test.1.sm_70.ptx:178) @%p14 bra BB0_7;
GPGPU-Sim PTX:    immediate post dominator      @  PC=0x370 (cutlass-test.1.sm_70.ptx:204) and.b32 %r1101, %r1526, 1;
GPGPU-Sim PTX:  4 (potential) branch divergence @  PC=0x2e0 (cutlass-test.1.sm_70.ptx:179) bra.uni BB0_5;
GPGPU-Sim PTX:    immediate post dominator      @  PC=0x328 (cutlass-test.1.sm_70.ptx:192) setp.gt.s32%p15, %r23, 32;
GPGPU-Sim PTX:  5 (potential) branch divergence @  PC=0x320 (cutlass-test.1.sm_70.ptx:189) bra.uni BB0_8;
GPGPU-Sim PTX:    immediate post dominator      @  PC=0x370 (cutlass-test.1.sm_70.ptx:204) and.b32 %r1101, %r1526, 1;
GPGPU-Sim PTX:  6 (potential) branch divergence @  PC=0x330 (cutlass-test.1.sm_70.ptx:193) @%p15 bra BB0_8;
GPGPU-Sim PTX:    immediate post dominator      @  PC=0x370 (cutlass-test.1.sm_70.ptx:204) and.b32 %r1101, %r1526, 1;
GPGPU-Sim PTX:  7 (potential) branch divergence @  PC=0x3a8 (cutlass-test.1.sm_70.ptx:211) @!%p18 bra BB0_10;
GPGPU-Sim PTX:    immediate post dominator      @  PC=0x3c0 (cutlass-test.1.sm_70.ptx:218) cvt.s64.s32%rd117, %r10;
GPGPU-Sim PTX:  8 (potential) branch divergence @  PC=0x3b0 (cutlass-test.1.sm_70.ptx:212) bra.uni BB0_9;
GPGPU-Sim PTX:    immediate post dominator      @  PC=0x3b8 (cutlass-test.1.sm_70.ptx:215) ld.global.v4.u32 {%r1693, %r1692, %r1695, %r1694}, [%rd6];
GPGPU-Sim PTX:  9 (potential) branch divergence @  PC=0x410 (cutlass-test.1.sm_70.ptx:228) @%p19 bra BB0_12;
GPGPU-Sim PTX:    immediate post dominator      @  PC=0x420 (cutlass-test.1.sm_70.ptx:233) cvt.s64.s32%rd119, %r11;
GPGPU-Sim PTX: 10 (potential) branch divergence @  PC=0x470 (cutlass-test.1.sm_70.ptx:243) @!%p20 bra BB0_14;
GPGPU-Sim PTX:    immediate post dominator      @  PC=0x488 (cutlass-test.1.sm_70.ptx:250) cvt.s64.s32%rd122, %r1;
GPGPU-Sim PTX: 11 (potential) branch divergence @  PC=0x478 (cutlass-test.1.sm_70.ptx:244) bra.uni BB0_13;
GPGPU-Sim PTX:    immediate post dominator      @  PC=0x480 (cutlass-test.1.sm_70.ptx:247) ld.global.v4.u32 {%r1701, %r1700, %r1703, %r1702}, [%rd8];
GPGPU-Sim PTX: 12 (potential) branch divergence @  PC=0x4d0 (cutlass-test.1.sm_70.ptx:259) @%p21 bra BB0_16;
GPGPU-Sim PTX:    immediate post dominator      @  PC=0x4e0 (cutlass-test.1.sm_70.ptx:264) cvt.s64.s32%rd124, %r2;
GPGPU-Sim PTX: 13 (potential) branch divergence @  PC=0x570 (cutlass-test.1.sm_70.ptx:282) @%p22 bra BB0_18;
GPGPU-Sim PTX:    immediate post dominator      @  PC=0x5e8 (cutlass-test.1.sm_70.ptx:320) mul.wide.s32 %rd134, %r70, 2;
GPGPU-Sim PTX: 14 (potential) branch divergence @  PC=0x6a0 (cutlass-test.1.sm_70.ptx:346) @%p23 bra BB0_19;
GPGPU-Sim PTX:    immediate post dominator      @  PC=0x12c8 (cutlass-test.1.sm_70.ptx:759) setp.lt.s32%p31, %r1820, -31;
GPGPU-Sim PTX: 15 (potential) branch divergence @  PC=0x8b0 (cutlass-test.1.sm_70.ptx:415) @%p24 bra BB0_23;
GPGPU-Sim PTX:    immediate post dominator      @  PC=0x980 (cutlass-test.1.sm_70.ptx:444) and.b32 %r1296, %r1526, 1;
GPGPU-Sim PTX: 16 (potential) branch divergence @  PC=0x990 (cutlass-test.1.sm_70.ptx:446) @!%p26 bra BB0_25;
GPGPU-Sim PTX:    immediate post dominator      @  PC=0x9a8 (cutlass-test.1.sm_70.ptx:453) mul.wide.s32 %rd145, %r10, 2;
GPGPU-Sim PTX: 17 (potential) branch divergence @  PC=0x998 (cutlass-test.1.sm_70.ptx:447) bra.uni BB0_24;
GPGPU-Sim PTX:    immediate post dominator      @  PC=0x9a0 (cutlass-test.1.sm_70.ptx:450) ld.global.v4.u32 {%r1693, %r1692, %r1695, %r1694}, [%rd364];
GPGPU-Sim PTX: 18 (potential) branch divergence @  PC=0x9c8 (cutlass-test.1.sm_70.ptx:457) @%p27 bra BB0_27;
GPGPU-Sim PTX:    immediate post dominator      @  PC=0x9d8 (cutlass-test.1.sm_70.ptx:462) add.s64 %rd148, %rd117, %rd119;
GPGPU-Sim PTX: 19 (potential) branch divergence @  PC=0xa00 (cutlass-test.1.sm_70.ptx:467) @!%p28 bra BB0_29;
GPGPU-Sim PTX:    immediate post dominator      @  PC=0xa18 (cutlass-test.1.sm_70.ptx:474) mul.wide.s32 %rd150, %r1, 2;
GPGPU-Sim PTX: 20 (potential) branch divergence @  PC=0xa08 (cutlass-test.1.sm_70.ptx:468) bra.uni BB0_28;
GPGPU-Sim PTX:    immediate post dominator      @  PC=0xa10 (cutlass-test.1.sm_70.ptx:471) ld.global.v4.u32 {%r1701, %r1700, %r1703, %r1702}, [%rd363];
GPGPU-Sim PTX: 21 (potential) branch divergence @  PC=0xa38 (cutlass-test.1.sm_70.ptx:478) @%p29 bra BB0_31;
GPGPU-Sim PTX:    immediate post dominator      @  PC=0xa48 (cutlass-test.1.sm_70.ptx:483) add.s32 %r1318, %r70, 16;
GPGPU-Sim PTX: 22 (potential) branch divergence @  PC=0x10c0 (cutlass-test.1.sm_70.ptx:690) @%p30 bra BB0_21;
GPGPU-Sim PTX:    immediate post dominator      @  PC=0x10c8 (cutlass-test.1.sm_70.ptx:691) bra.uni BB0_32;
GPGPU-Sim PTX: 23 (potential) branch divergence @  PC=0x10c8 (cutlass-test.1.sm_70.ptx:691) bra.uni BB0_32;
GPGPU-Sim PTX:    immediate post dominator      @  PC=0x12c8 (cutlass-test.1.sm_70.ptx:759) setp.lt.s32%p31, %r1820, -31;
GPGPU-Sim PTX: 24 (potential) branch divergence @  PC=0x12d0 (cutlass-test.1.sm_70.ptx:760) @%p31 bra BB0_35;
GPGPU-Sim PTX:    immediate post dominator      @  PC=0x1828 (cutlass-test.1.sm_70.ptx:936) ld.param.f32 %f971, [_ZN7cutlass4gemm11gemm_kernelINS0_4GemmINS0_14WmmaGemmTraitsILNS_12MatrixLayout4KindE0ELS5_1ENS_5ShapeILi32ELi128ELi128ELi1EEEfNS0_13LinearScalingIfNS0_19FragmentMultiplyAddIfEEEEfNS6_ILi32ELi32ELi64ELi1EEENS6_ILi16ELi16ELi16ELi1EEELi8ELi8EiNS0_20WmmaGemmTraitsHelperILS5_0ELS5_1ES7_ffSB_SC_SD_Li8ELi8EiEEEEEEEEvNT_6ParamsE_param_0+428];
GPGPU-Sim PTX: 25 (potential) branch divergence @  PC=0x1820 (cutlass-test.1.sm_70.ptx:933) @%p32 bra BB0_34;
GPGPU-Sim PTX:    immediate post dominator      @  PC=0x1828 (cutlass-test.1.sm_70.ptx:936) ld.param.f32 %f971, [_ZN7cutlass4gemm11gemm_kernelINS0_4GemmINS0_14WmmaGemmTraitsILNS_12MatrixLayout4KindE0ELS5_1ENS_5ShapeILi32ELi128ELi128ELi1EEEfNS0_13LinearScalingIfNS0_19FragmentMultiplyAddIfEEEEfNS6_ILi32ELi32ELi64ELi1EEENS6_ILi16ELi16ELi16ELi1EEELi8ELi8EiNS0_20WmmaGemmTraitsHelperILS5_0ELS5_1ES7_ffSB_SC_SD_Li8ELi8EiEEEEEEEEvNT_6ParamsE_param_0+428];
GPGPU-Sim PTX: 26 (potential) branch divergence @  PC=0x18e0 (cutlass-test.1.sm_70.ptx:959) @%p33 bra BB0_104;
GPGPU-Sim PTX:    immediate post dominator      @  PC=0x3918 (cutlass-test.1.sm_70.ptx:2272) ret;
GPGPU-Sim PTX: 27 (potential) branch divergence @  PC=0x18e8 (cutlass-test.1.sm_70.ptx:960) bra.uni BB0_36;
GPGPU-Sim PTX:    immediate post dominator      @  PC=0x2598 (cutlass-test.1.sm_70.ptx:1476) ld.param.u64 %rd356, [_ZN7cutlass4gemm11gemm_kernelINS0_4GemmINS0_14WmmaGemmTraitsILNS_12MatrixLayout4KindE0ELS5_1ENS_5ShapeILi32ELi128ELi128ELi1EEEfNS0_13LinearScalingIfNS0_19FragmentMultiplyAddIfEEEEfNS6_ILi32ELi32ELi64ELi1EEENS6_ILi16ELi16ELi16ELi1EEELi8ELi8EiNS0_20WmmaGemmTraitsHelperILS5_0ELS5_1ES7_ffSB_SC_SD_Li8ELi8EiEEEEEEEEvNT_6ParamsE_param_0+280];
GPGPU-Sim PTX: 28 (potential) branch divergence @  PC=0x18f8 (cutlass-test.1.sm_70.ptx:964) @%p132 bra BB0_106;
GPGPU-Sim PTX:    immediate post dominator      @  PC=0x1970 (cutlass-test.1.sm_70.ptx:1002) shl.b32 %r1443, %r19, 2;
GPGPU-Sim PTX: 29 (potential) branch divergence @  PC=0x1990 (cutlass-test.1.sm_70.ptx:1006) @%p133 bra BB0_108;
GPGPU-Sim PTX:    immediate post dominator      @  PC=0x1a08 (cutlass-test.1.sm_70.ptx:1044) mul.wide.s32 %rd295, %r824, 4;
GPGPU-Sim PTX: 30 (potential) branch divergence @  PC=0x1be0 (cutlass-test.1.sm_70.ptx:1103) @%p136 bra BB0_110;
GPGPU-Sim PTX:    immediate post dominator      @  PC=0x1c20 (cutlass-test.1.sm_70.ptx:1114) ld.param.f32 %f976, [_ZN7cutlass4gemm11gemm_kernelINS0_4GemmINS0_14WmmaGemmTraitsILNS_12MatrixLayout4KindE0ELS5_1ENS_5ShapeILi32ELi128ELi128ELi1EEEfNS0_13LinearScalingIfNS0_19FragmentMultiplyAddIfEEEEfNS6_ILi32ELi32ELi64ELi1EEENS6_ILi16ELi16ELi16ELi1EEELi8ELi8EiNS0_20WmmaGemmTraitsHelperILS5_0ELS5_1ES7_ffSB_SC_SD_Li8ELi8EiEEEEEEEEvNT_6ParamsE_param_0+424];
GPGPU-Sim PTX: 31 (potential) branch divergence @  PC=0x1e10 (cutlass-test.1.sm_70.ptx:1176) @!%p139 bra BB0_112;
GPGPU-Sim PTX:    immediate post dominator      @  PC=0x1e38 (cutlass-test.1.sm_70.ptx:1185) add.s64 %rd85, %rd84, %rd83;
GPGPU-Sim PTX: 32 (potential) branch divergence @  PC=0x1e18 (cutlass-test.1.sm_70.ptx:1177) bra.uni BB0_111;
GPGPU-Sim PTX:    immediate post dominator      @  PC=0x1e20 (cutlass-test.1.sm_70.ptx:1180) shl.b64 %rd302, %rd84, 2;
GPGPU-Sim PTX: 33 (potential) branch divergence @  PC=0x1e58 (cutlass-test.1.sm_70.ptx:1189) @!%p142 bra BB0_114;
GPGPU-Sim PTX:    immediate post dominator      @  PC=0x1e80 (cutlass-test.1.sm_70.ptx:1198) add.s64 %rd86, %rd85, %rd83;
GPGPU-Sim PTX: 34 (potential) branch divergence @  PC=0x1e60 (cutlass-test.1.sm_70.ptx:1190) bra.uni BB0_113;
GPGPU-Sim PTX:    immediate post dominator      @  PC=0x1e68 (cutlass-test.1.sm_70.ptx:1193) shl.b64 %rd305, %rd85, 2;
GPGPU-Sim PTX: 35 (potential) branch divergence @  PC=0x1ea0 (cutlass-test.1.sm_70.ptx:1202) @!%p145 bra BB0_116;
GPGPU-Sim PTX:    immediate post dominator      @  PC=0x1ec8 (cutlass-test.1.sm_70.ptx:1211) add.s64 %rd87, %rd86, %rd83;
GPGPU-Sim PTX: 36 (potential) branch divergence @  PC=0x1ea8 (cutlass-test.1.sm_70.ptx:1203) bra.uni BB0_115;
GPGPU-Sim PTX:    immediate post dominator      @  PC=0x1eb0 (cutlass-test.1.sm_70.ptx:1206) shl.b64 %rd308, %rd86, 2;
GPGPU-Sim PTX: 37 (potential) branch divergence @  PC=0x1ee8 (cutlass-test.1.sm_70.ptx:1215) @!%p148 bra BB0_118;
GPGPU-Sim PTX:    immediate post dominator      @  PC=0x1f10 (cutlass-test.1.sm_70.ptx:1224) add.s64 %rd88, %rd87, %rd83;
GPGPU-Sim PTX: 38 (potential) branch divergence @  PC=0x1ef0 (cutlass-test.1.sm_70.ptx:1216) bra.uni BB0_117;
GPGPU-Sim PTX:    immediate post dominator      @  PC=0x1ef8 (cutlass-test.1.sm_70.ptx:1219) shl.b64 %rd311, %rd87, 2;
GPGPU-Sim PTX: 39 (potential) branch divergence @  PC=0x1f30 (cutlass-test.1.sm_70.ptx:1228) @!%p151 bra BB0_120;
GPGPU-Sim PTX:    immediate post dominator      @  PC=0x1f58 (cutlass-test.1.sm_70.ptx:1237) add.s64 %rd89, %rd88, %rd83;
GPGPU-Sim PTX: 40 (potential) branch divergence @  PC=0x1f38 (cutlass-test.1.sm_70.ptx:1229) bra.uni BB0_119;
GPGPU-Sim PTX:    immediate post dominator      @  PC=0x1f40 (cutlass-test.1.sm_70.ptx:1232) shl.b64 %rd314, %rd88, 2;
GPGPU-Sim PTX: 41 (potential) branch divergence @  PC=0x1f78 (cutlass-test.1.sm_70.ptx:1241) @!%p154 bra BB0_122;
GPGPU-Sim PTX:    immediate post dominator      @  PC=0x1fa0 (cutlass-test.1.sm_70.ptx:1250) add.s64 %rd90, %rd89, %rd83;
GPGPU-Sim PTX: 42 (potential) branch divergence @  PC=0x1f80 (cutlass-test.1.sm_70.ptx:1242) bra.uni BB0_121;
GPGPU-Sim PTX:    immediate post dominator      @  PC=0x1f88 (cutlass-test.1.sm_70.ptx:1245) shl.b64 %rd317, %rd89, 2;
GPGPU-Sim PTX: 43 (potential) branch divergence @  PC=0x1fc0 (cutlass-test.1.sm_70.ptx:1254) @!%p157 bra BB0_124;
GPGPU-Sim PTX:    immediate post dominator      @  PC=0x1fe8 (cutlass-test.1.sm_70.ptx:1263) cvt.s64.s32%rd322, %r1066;
GPGPU-Sim PTX: 44 (potential) branch divergence @  PC=0x1fc8 (cutlass-test.1.sm_70.ptx:1255) bra.uni BB0_123;
GPGPU-Sim PTX:    immediate post dominator      @  PC=0x1fd0 (cutlass-test.1.sm_70.ptx:1258) shl.b64 %rd320, %rd90, 2;
GPGPU-Sim PTX: 45 (potential) branch divergence @  PC=0x2180 (cutlass-test.1.sm_70.ptx:1314) @%p160 bra BB0_126;
GPGPU-Sim PTX:    immediate post dominator      @  PC=0x21d0 (cutlass-test.1.sm_70.ptx:1327) ld.param.f32 %f977, [_ZN7cutlass4gemm11gemm_kernelINS0_4GemmINS0_14WmmaGemmTraitsILNS_12MatrixLayout4KindE0ELS5_1ENS_5ShapeILi32ELi128ELi128ELi1EEEfNS0_13LinearScalingIfNS0_19FragmentMultiplyAddIfEEEEfNS6_ILi32ELi32ELi64ELi1EEENS6_ILi16ELi16ELi16ELi1EEELi8ELi8EiNS0_20WmmaGemmTraitsHelperILS5_0ELS5_1ES7_ffSB_SC_SD_Li8ELi8EiEEEEEEEEvNT_6ParamsE_param_0+424];
GPGPU-Sim PTX: 46 (potential) branch divergence @  PC=0x23b8 (cutlass-test.1.sm_70.ptx:1388) @!%p163 bra BB0_128;
GPGPU-Sim PTX:    immediate post dominator      @  PC=0x23e0 (cutlass-test.1.sm_70.ptx:1397) add.s64 %rd93, %rd92, %rd83;
GPGPU-Sim PTX: 47 (potential) branch divergence @  PC=0x23c0 (cutlass-test.1.sm_70.ptx:1389) bra.uni BB0_127;
GPGPU-Sim PTX:    immediate post dominator      @  PC=0x23c8 (cutlass-test.1.sm_70.ptx:1392) shl.b64 %rd329, %rd92, 2;
GPGPU-Sim PTX: 48 (potential) branch divergence @  PC=0x2400 (cutlass-test.1.sm_70.ptx:1401) @!%p166 bra BB0_130;
GPGPU-Sim PTX:    immediate post dominator      @  PC=0x2428 (cutlass-test.1.sm_70.ptx:1410) add.s64 %rd94, %rd93, %rd83;
GPGPU-Sim PTX: 49 (potential) branch divergence @  PC=0x2408 (cutlass-test.1.sm_70.ptx:1402) bra.uni BB0_129;
GPGPU-Sim PTX:    immediate post dominator      @  PC=0x2410 (cutlass-test.1.sm_70.ptx:1405) shl.b64 %rd332, %rd93, 2;
GPGPU-Sim PTX: 50 (potential) branch divergence @  PC=0x2448 (cutlass-test.1.sm_70.ptx:1414) @!%p169 bra BB0_132;
GPGPU-Sim PTX:    immediate post dominator      @  PC=0x2470 (cutlass-test.1.sm_70.ptx:1423) add.s64 %rd95, %rd94, %rd83;
GPGPU-Sim PTX: 51 (potential) branch divergence @  PC=0x2450 (cutlass-test.1.sm_70.ptx:1415) bra.uni BB0_131;
GPGPU-Sim PTX:    immediate post dominator      @  PC=0x2458 (cutlass-test.1.sm_70.ptx:1418) shl.b64 %rd335, %rd94, 2;
GPGPU-Sim PTX: 52 (potential) branch divergence @  PC=0x2490 (cutlass-test.1.sm_70.ptx:1427) @!%p172 bra BB0_134;
GPGPU-Sim PTX:    immediate post dominator      @  PC=0x24b8 (cutlass-test.1.sm_70.ptx:1436) add.s64 %rd96, %rd95, %rd83;
GPGPU-Sim PTX: 53 (potential) branch divergence @  PC=0x2498 (cutlass-test.1.sm_70.ptx:1428) bra.uni BB0_133;
GPGPU-Sim PTX:    immediate post dominator      @  PC=0x24a0 (cutlass-test.1.sm_70.ptx:1431) shl.b64 %rd338, %rd95, 2;
GPGPU-Sim PTX: 54 (potential) branch divergence @  PC=0x24d8 (cutlass-test.1.sm_70.ptx:1440) @!%p175 bra BB0_136;
GPGPU-Sim PTX:    immediate post dominator      @  PC=0x2500 (cutlass-test.1.sm_70.ptx:1449) add.s64 %rd97, %rd96, %rd83;
GPGPU-Sim PTX: 55 (potential) branch divergence @  PC=0x24e0 (cutlass-test.1.sm_70.ptx:1441) bra.uni BB0_135;
GPGPU-Sim PTX:    immediate post dominator      @  PC=0x24e8 (cutlass-test.1.sm_70.ptx:1444) shl.b64 %rd341, %rd96, 2;
GPGPU-Sim PTX: 56 (potential) branch divergence @  PC=0x2520 (cutlass-test.1.sm_70.ptx:1453) @!%p178 bra BB0_138;
GPGPU-Sim PTX:    immediate post dominator      @  PC=0x2548 (cutlass-test.1.sm_70.ptx:1462) add.s64 %rd347, %rd97, %rd83;
GPGPU-Sim PTX: 57 (potential) branch divergence @  PC=0x2528 (cutlass-test.1.sm_70.ptx:1454) bra.uni BB0_137;
GPGPU-Sim PTX:    immediate post dominator      @  PC=0x2530 (cutlass-test.1.sm_70.ptx:1457) shl.b64 %rd344, %rd97, 2;
GPGPU-Sim PTX: 58 (potential) branch divergence @  PC=0x2578 (cutlass-test.1.sm_70.ptx:1468) @!%p181 bra BB0_140;
GPGPU-Sim PTX:    immediate post dominator      @  PC=0x3918 (cutlass-test.1.sm_70.ptx:2272) ret;
GPGPU-Sim PTX: 59 (potential) branch divergence @  PC=0x2580 (cutlass-test.1.sm_70.ptx:1469) bra.uni BB0_139;
GPGPU-Sim PTX:    immediate post dominator      @  PC=0x2588 (cutlass-test.1.sm_70.ptx:1472) st.global.v4.f32 [%rd98], {%f226, %f225, %f224, %f223};
GPGPU-Sim PTX: 60 (potential) branch divergence @  PC=0x2590 (cutlass-test.1.sm_70.ptx:1473) bra.uni BB0_140;
GPGPU-Sim PTX:    immediate post dominator      @  PC=0x3918 (cutlass-test.1.sm_70.ptx:2272) ret;
GPGPU-Sim PTX: 61 (potential) branch divergence @  PC=0x25d8 (cutlass-test.1.sm_70.ptx:1484) @%p34 bra BB0_38;
GPGPU-Sim PTX:    immediate post dominator      @  PC=0x2650 (cutlass-test.1.sm_70.ptx:1522) shl.b32 %r1358, %r19, 2;
GPGPU-Sim PTX: 62 (potential) branch divergence @  PC=0x2670 (cutlass-test.1.sm_70.ptx:1526) @%p35 bra BB0_40;
GPGPU-Sim PTX:    immediate post dominator      @  PC=0x26e8 (cutlass-test.1.sm_70.ptx:1564) setp.lt.s32%p36, %r822, %r1072;
GPGPU-Sim PTX: 63 (potential) branch divergence @  PC=0x2700 (cutlass-test.1.sm_70.ptx:1567) @!%p38 bra BB0_42;
GPGPU-Sim PTX:    immediate post dominator      @  PC=0x2718 (cutlass-test.1.sm_70.ptx:1574) cvt.s64.s32%rd33, %r1059;
GPGPU-Sim PTX: 64 (potential) branch divergence @  PC=0x2708 (cutlass-test.1.sm_70.ptx:1568) bra.uni BB0_41;
GPGPU-Sim PTX:    immediate post dominator      @  PC=0x2710 (cutlass-test.1.sm_70.ptx:1571) ld.global.v4.u32 {%r1982, %r1983, %r1984, %r1985}, [%rd32];
GPGPU-Sim PTX: 65 (potential) branch divergence @  PC=0x2750 (cutlass-test.1.sm_70.ptx:1581) @!%p41 bra BB0_44;
GPGPU-Sim PTX:    immediate post dominator      @  PC=0x2768 (cutlass-test.1.sm_70.ptx:1588) add.s64 %rd36, %rd34, %rd33;
GPGPU-Sim PTX: 66 (potential) branch divergence @  PC=0x2758 (cutlass-test.1.sm_70.ptx:1582) bra.uni BB0_43;
GPGPU-Sim PTX:    immediate post dominator      @  PC=0x2760 (cutlass-test.1.sm_70.ptx:1585) ld.global.v4.u32 {%r1986, %r1987, %r1988, %r1989}, [%rd35];
GPGPU-Sim PTX: 67 (potential) branch divergence @  PC=0x2798 (cutlass-test.1.sm_70.ptx:1594) @!%p44 bra BB0_46;
GPGPU-Sim PTX:    immediate post dominator      @  PC=0x27b0 (cutlass-test.1.sm_70.ptx:1601) add.s64 %rd38, %rd36, %rd33;
GPGPU-Sim PTX: 68 (potential) branch divergence @  PC=0x27a0 (cutlass-test.1.sm_70.ptx:1595) bra.uni BB0_45;
GPGPU-Sim PTX:    immediate post dominator      @  PC=0x27a8 (cutlass-test.1.sm_70.ptx:1598) ld.global.v4.u32 {%r1990, %r1991, %r1992, %r1993}, [%rd37];
GPGPU-Sim PTX: 69 (potential) branch divergence @  PC=0x27e0 (cutlass-test.1.sm_70.ptx:1607) @!%p47 bra BB0_48;
GPGPU-Sim PTX:    immediate post dominator      @  PC=0x27f8 (cutlass-test.1.sm_70.ptx:1614) add.s64 %rd40, %rd38, %rd33;
GPGPU-Sim PTX: 70 (potential) branch divergence @  PC=0x27e8 (cutlass-test.1.sm_70.ptx:1608) bra.uni BB0_47;
GPGPU-Sim PTX:    immediate post dominator      @  PC=0x27f0 (cutlass-test.1.sm_70.ptx:1611) ld.global.v4.u32 {%r1994, %r1995, %r1996, %r1997}, [%rd39];
GPGPU-Sim PTX: 71 (potential) branch divergence @  PC=0x2828 (cutlass-test.1.sm_70.ptx:1620) @!%p50 bra BB0_50;
GPGPU-Sim PTX:    immediate post dominator      @  PC=0x2840 (cutlass-test.1.sm_70.ptx:1627) add.s64 %rd42, %rd40, %rd33;
GPGPU-Sim PTX: 72 (potential) branch divergence @  PC=0x2830 (cutlass-test.1.sm_70.ptx:1621) bra.uni BB0_49;
GPGPU-Sim PTX:    immediate post dominator      @  PC=0x2838 (cutlass-test.1.sm_70.ptx:1624) ld.global.v4.u32 {%r1998, %r1999, %r2000, %r2001}, [%rd41];
GPGPU-Sim PTX: 73 (potential) branch divergence @  PC=0x2870 (cutlass-test.1.sm_70.ptx:1633) @!%p53 bra BB0_52;
GPGPU-Sim PTX:    immediate post dominator      @  PC=0x2888 (cutlass-test.1.sm_70.ptx:1640) add.s64 %rd44, %rd42, %rd33;
GPGPU-Sim PTX: 74 (potential) branch divergence @  PC=0x2878 (cutlass-test.1.sm_70.ptx:1634) bra.uni BB0_51;
GPGPU-Sim PTX:    immediate post dominator      @  PC=0x2880 (cutlass-test.1.sm_70.ptx:1637) ld.global.v4.u32 {%r2002, %r2003, %r2004, %r2005}, [%rd43];
GPGPU-Sim PTX: 75 (potential) branch divergence @  PC=0x28b8 (cutlass-test.1.sm_70.ptx:1646) @!%p56 bra BB0_54;
GPGPU-Sim PTX:    immediate post dominator      @  PC=0x28d0 (cutlass-test.1.sm_70.ptx:1653) add.s64 %rd46, %rd44, %rd33;
GPGPU-Sim PTX: 76 (potential) branch divergence @  PC=0x28c0 (cutlass-test.1.sm_70.ptx:1647) bra.uni BB0_53;
GPGPU-Sim PTX:    immediate post dominator      @  PC=0x28c8 (cutlass-test.1.sm_70.ptx:1650) ld.global.v4.u32 {%r2006, %r2007, %r2008, %r2009}, [%rd45];
GPGPU-Sim PTX: 77 (potential) branch divergence @  PC=0x2900 (cutlass-test.1.sm_70.ptx:1659) @!%p59 bra BB0_56;
GPGPU-Sim PTX:    immediate post dominator      @  PC=0x2918 (cutlass-test.1.sm_70.ptx:1666) mul.wide.s32 %rd209, %r824, 4;
GPGPU-Sim PTX: 78 (potential) branch divergence @  PC=0x2908 (cutlass-test.1.sm_70.ptx:1660) bra.uni BB0_55;
GPGPU-Sim PTX:    immediate post dominator      @  PC=0x2910 (cutlass-test.1.sm_70.ptx:1663) ld.global.v4.u32 {%r2010, %r2011, %r2012, %r2013}, [%rd47];
GPGPU-Sim PTX: 79 (potential) branch divergence @  PC=0x2e28 (cutlass-test.1.sm_70.ptx:1828) @%p62 bra BB0_58;
GPGPU-Sim PTX:    immediate post dominator      @  PC=0x2e38 (cutlass-test.1.sm_70.ptx:1833) cvt.s64.s32%rd52, %r1065;
GPGPU-Sim PTX: 80 (potential) branch divergence @  PC=0x2e60 (cutlass-test.1.sm_70.ptx:1838) @!%p65 bra BB0_60;
GPGPU-Sim PTX:    immediate post dominator      @  PC=0x2e88 (cutlass-test.1.sm_70.ptx:1847) add.s64 %rd54, %rd53, %rd52;
GPGPU-Sim PTX: 81 (potential) branch divergence @  PC=0x2e68 (cutlass-test.1.sm_70.ptx:1839) bra.uni BB0_59;
GPGPU-Sim PTX:    immediate post dominator      @  PC=0x2e70 (cutlass-test.1.sm_70.ptx:1842) shl.b64 %rd219, %rd53, 2;
GPGPU-Sim PTX: 82 (potential) branch divergence @  PC=0x2ea8 (cutlass-test.1.sm_70.ptx:1851) @!%p68 bra BB0_62;
GPGPU-Sim PTX:    immediate post dominator      @  PC=0x2ed0 (cutlass-test.1.sm_70.ptx:1860) add.s64 %rd55, %rd54, %rd52;
GPGPU-Sim PTX: 83 (potential) branch divergence @  PC=0x2eb0 (cutlass-test.1.sm_70.ptx:1852) bra.uni BB0_61;
GPGPU-Sim PTX:    immediate post dominator      @  PC=0x2eb8 (cutlass-test.1.sm_70.ptx:1855) shl.b64 %rd222, %rd54, 2;
GPGPU-Sim PTX: 84 (potential) branch divergence @  PC=0x2ef0 (cutlass-test.1.sm_70.ptx:1864) @!%p71 bra BB0_64;
GPGPU-Sim PTX:    immediate post dominator      @  PC=0x2f18 (cutlass-test.1.sm_70.ptx:1873) add.s64 %rd56, %rd55, %rd52;
GPGPU-Sim PTX: 85 (potential) branch divergence @  PC=0x2ef8 (cutlass-test.1.sm_70.ptx:1865) bra.uni BB0_63;
GPGPU-Sim PTX:    immediate post dominator      @  PC=0x2f00 (cutlass-test.1.sm_70.ptx:1868) shl.b64 %rd225, %rd55, 2;
GPGPU-Sim PTX: 86 (potential) branch divergence @  PC=0x2f38 (cutlass-test.1.sm_70.ptx:1877) @!%p74 bra BB0_66;
GPGPU-Sim PTX:    immediate post dominator      @  PC=0x2f60 (cutlass-test.1.sm_70.ptx:1886) add.s64 %rd57, %rd56, %rd52;
GPGPU-Sim PTX: 87 (potential) branch divergence @  PC=0x2f40 (cutlass-test.1.sm_70.ptx:1878) bra.uni BB0_65;
GPGPU-Sim PTX:    immediate post dominator      @  PC=0x2f48 (cutlass-test.1.sm_70.ptx:1881) shl.b64 %rd228, %rd56, 2;
GPGPU-Sim PTX: 88 (potential) branch divergence @  PC=0x2f80 (cutlass-test.1.sm_70.ptx:1890) @!%p77 bra BB0_68;
GPGPU-Sim PTX:    immediate post dominator      @  PC=0x2fa8 (cutlass-test.1.sm_70.ptx:1899) add.s64 %rd58, %rd57, %rd52;
GPGPU-Sim PTX: 89 (potential) branch divergence @  PC=0x2f88 (cutlass-test.1.sm_70.ptx:1891) bra.uni BB0_67;
GPGPU-Sim PTX:    immediate post dominator      @  PC=0x2f90 (cutlass-test.1.sm_70.ptx:1894) shl.b64 %rd231, %rd57, 2;
GPGPU-Sim PTX: 90 (potential) branch divergence @  PC=0x2fc8 (cutlass-test.1.sm_70.ptx:1903) @!%p80 bra BB0_70;
GPGPU-Sim PTX:    immediate post dominator      @  PC=0x2ff0 (cutlass-test.1.sm_70.ptx:1912) add.s64 %rd59, %rd58, %rd52;
GPGPU-Sim PTX: 91 (potential) branch divergence @  PC=0x2fd0 (cutlass-test.1.sm_70.ptx:1904) bra.uni BB0_69;
GPGPU-Sim PTX:    immediate post dominator      @  PC=0x2fd8 (cutlass-test.1.sm_70.ptx:1907) shl.b64 %rd234, %rd58, 2;
GPGPU-Sim PTX: 92 (potential) branch divergence @  PC=0x3010 (cutlass-test.1.sm_70.ptx:1916) @!%p83 bra BB0_72;
GPGPU-Sim PTX:    immediate post dominator      @  PC=0x3038 (cutlass-test.1.sm_70.ptx:1925) cvt.s64.s32%rd239, %r1066;
GPGPU-Sim PTX: 93 (potential) branch divergence @  PC=0x3018 (cutlass-test.1.sm_70.ptx:1917) bra.uni BB0_71;
GPGPU-Sim PTX:    immediate post dominator      @  PC=0x3020 (cutlass-test.1.sm_70.ptx:1920) shl.b64 %rd237, %rd59, 2;
GPGPU-Sim PTX: 94 (potential) branch divergence @  PC=0x3060 (cutlass-test.1.sm_70.ptx:1930) @!%p86 bra BB0_74;
GPGPU-Sim PTX:    immediate post dominator      @  PC=0x3078 (cutlass-test.1.sm_70.ptx:1937) add.s64 %rd61, %rd49, %rd33;
GPGPU-Sim PTX: 95 (potential) branch divergence @  PC=0x3068 (cutlass-test.1.sm_70.ptx:1931) bra.uni BB0_73;
GPGPU-Sim PTX:    immediate post dominator      @  PC=0x3070 (cutlass-test.1.sm_70.ptx:1934) ld.global.v4.u32 {%r1982, %r1983, %r1984, %r1985}, [%rd50];
GPGPU-Sim PTX: 96 (potential) branch divergence @  PC=0x30a8 (cutlass-test.1.sm_70.ptx:1943) @!%p89 bra BB0_76;
GPGPU-Sim PTX:    immediate post dominator      @  PC=0x30c0 (cutlass-test.1.sm_70.ptx:1950) add.s64 %rd63, %rd61, %rd33;
GPGPU-Sim PTX: 97 (potential) branch divergence @  PC=0x30b0 (cutlass-test.1.sm_70.ptx:1944) bra.uni BB0_75;
GPGPU-Sim PTX:    immediate post dominator      @  PC=0x30b8 (cutlass-test.1.sm_70.ptx:1947) ld.global.v4.u32 {%r1986, %r1987, %r1988, %r1989}, [%rd62];
GPGPU-Sim PTX: 98 (potential) branch divergence @  PC=0x30f0 (cutlass-test.1.sm_70.ptx:1956) @!%p92 bra BB0_78;
GPGPU-Sim PTX:    immediate post dominator      @  PC=0x3108 (cutlass-test.1.sm_70.ptx:1963) add.s64 %rd65, %rd63, %rd33;
GPGPU-Sim PTX: 99 (potential) branch divergence @  PC=0x30f8 (cutlass-test.1.sm_70.ptx:1957) bra.uni BB0_77;
GPGPU-Sim PTX:    immediate post dominator      @  PC=0x3100 (cutlass-test.1.sm_70.ptx:1960) ld.global.v4.u32 {%r1990, %r1991, %r1992, %r1993}, [%rd64];
GPGPU-Sim PTX: 100 (potential) branch divergence @  PC=0x3138 (cutlass-test.1.sm_70.ptx:1969) @!%p95 bra BB0_80;
GPGPU-Sim PTX:    immediate post dominator      @  PC=0x3150 (cutlass-test.1.sm_70.ptx:1976) add.s64 %rd67, %rd65, %rd33;
GPGPU-Sim PTX: 101 (potential) branch divergence @  PC=0x3140 (cutlass-test.1.sm_70.ptx:1970) bra.uni BB0_79;
GPGPU-Sim PTX:    immediate post dominator      @  PC=0x3148 (cutlass-test.1.sm_70.ptx:1973) ld.global.v4.u32 {%r1994, %r1995, %r1996, %r1997}, [%rd66];
GPGPU-Sim PTX: 102 (potential) branch divergence @  PC=0x3180 (cutlass-test.1.sm_70.ptx:1982) @!%p98 bra BB0_82;
GPGPU-Sim PTX:    immediate post dominator      @  PC=0x3198 (cutlass-test.1.sm_70.ptx:1989) add.s64 %rd69, %rd67, %rd33;
GPGPU-Sim PTX: 103 (potential) branch divergence @  PC=0x3188 (cutlass-test.1.sm_70.ptx:1983) bra.uni BB0_81;
GPGPU-Sim PTX:    immediate post dominator      @  PC=0x3190 (cutlass-test.1.sm_70.ptx:1986) ld.global.v4.u32 {%r1998, %r1999, %r2000, %r2001}, [%rd68];
GPGPU-Sim PTX: 104 (potential) branch divergence @  PC=0x31c8 (cutlass-test.1.sm_70.ptx:1995) @!%p101 bra BB0_84;
GPGPU-Sim PTX:    immediate post dominator      @  PC=0x31e0 (cutlass-test.1.sm_70.ptx:2002) add.s64 %rd71, %rd69, %rd33;
GPGPU-Sim PTX: 105 (potential) branch divergence @  PC=0x31d0 (cutlass-test.1.sm_70.ptx:1996) bra.uni BB0_83;
GPGPU-Sim PTX:    immediate post dominator      @  PC=0x31d8 (cutlass-test.1.sm_70.ptx:1999) ld.global.v4.u32 {%r2002, %r2003, %r2004, %r2005}, [%rd70];
GPGPU-Sim PTX: 106 (potential) branch divergence @  PC=0x3210 (cutlass-test.1.sm_70.ptx:2008) @!%p104 bra BB0_86;
GPGPU-Sim PTX:    immediate post dominator      @  PC=0x3228 (cutlass-test.1.sm_70.ptx:2015) add.s64 %rd253, %rd71, %rd33;
GPGPU-Sim PTX: 107 (potential) branch divergence @  PC=0x3218 (cutlass-test.1.sm_70.ptx:2009) bra.uni BB0_85;
GPGPU-Sim PTX:    immediate post dominator      @  PC=0x3220 (cutlass-test.1.sm_70.ptx:2012) ld.global.v4.u32 {%r2006, %r2007, %r2008, %r2009}, [%rd72];
GPGPU-Sim PTX: 108 (potential) branch divergence @  PC=0x3258 (cutlass-test.1.sm_70.ptx:2021) @!%p107 bra BB0_88;
GPGPU-Sim PTX:    immediate post dominator      @  PC=0x3270 (cutlass-test.1.sm_70.ptx:2028) bar.sync 0;
GPGPU-Sim PTX: 109 (potential) branch divergence @  PC=0x3260 (cutlass-test.1.sm_70.ptx:2022) bra.uni BB0_87;
GPGPU-Sim PTX:    immediate post dominator      @  PC=0x3268 (cutlass-test.1.sm_70.ptx:2025) ld.global.v4.u32 {%r2010, %r2011, %r2012, %r2013}, [%rd73];
GPGPU-Sim PTX: 110 (potential) branch divergence @  PC=0x3700 (cutlass-test.1.sm_70.ptx:2174) @%p110 bra BB0_90;
GPGPU-Sim PTX:    immediate post dominator      @  PC=0x3720 (cutlass-test.1.sm_70.ptx:2181) add.s64 %rd74, %rd60, %rd52;
GPGPU-Sim PTX: 111 (potential) branch divergence @  PC=0x3740 (cutlass-test.1.sm_70.ptx:2185) @!%p113 bra BB0_92;
GPGPU-Sim PTX:    immediate post dominator      @  PC=0x3768 (cutlass-test.1.sm_70.ptx:2194) add.s64 %rd75, %rd74, %rd52;
GPGPU-Sim PTX: 112 (potential) branch divergence @  PC=0x3748 (cutlass-test.1.sm_70.ptx:2186) bra.uni BB0_91;
GPGPU-Sim PTX:    immediate post dominator      @  PC=0x3750 (cutlass-test.1.sm_70.ptx:2189) shl.b64 %rd261, %rd74, 2;
GPGPU-Sim PTX: 113 (potential) branch divergence @  PC=0x3788 (cutlass-test.1.sm_70.ptx:2198) @!%p116 bra BB0_94;
GPGPU-Sim PTX:    immediate post dominator      @  PC=0x37b0 (cutlass-test.1.sm_70.ptx:2207) add.s64 %rd76, %rd75, %rd52;
GPGPU-Sim PTX: 114 (potential) branch divergence @  PC=0x3790 (cutlass-test.1.sm_70.ptx:2199) bra.uni BB0_93;
GPGPU-Sim PTX:    immediate post dominator      @  PC=0x3798 (cutlass-test.1.sm_70.ptx:2202) shl.b64 %rd264, %rd75, 2;
GPGPU-Sim PTX: 115 (potential) branch divergence @  PC=0x37d0 (cutlass-test.1.sm_70.ptx:2211) @!%p119 bra BB0_96;
GPGPU-Sim PTX:    immediate post dominator      @  PC=0x37f8 (cutlass-test.1.sm_70.ptx:2220) add.s64 %rd77, %rd76, %rd52;
GPGPU-Sim PTX: 116 (potential) branch divergence @  PC=0x37d8 (cutlass-test.1.sm_70.ptx:2212) bra.uni BB0_95;
GPGPU-Sim PTX:    immediate post dominator      @  PC=0x37e0 (cutlass-test.1.sm_70.ptx:2215) shl.b64 %rd267, %rd76, 2;
GPGPU-Sim PTX: 117 (potential) branch divergence @  PC=0x3818 (cutlass-test.1.sm_70.ptx:2224) @!%p122 bra BB0_98;
GPGPU-Sim PTX:    immediate post dominator      @  PC=0x3840 (cutlass-test.1.sm_70.ptx:2233) add.s64 %rd78, %rd77, %rd52;
GPGPU-Sim PTX: 118 (potential) branch divergence @  PC=0x3820 (cutlass-test.1.sm_70.ptx:2225) bra.uni BB0_97;
GPGPU-Sim PTX:    immediate post dominator      @  PC=0x3828 (cutlass-test.1.sm_70.ptx:2228) shl.b64 %rd270, %rd77, 2;
GPGPU-Sim PTX: 119 (potential) branch divergence @  PC=0x3860 (cutlass-test.1.sm_70.ptx:2237) @!%p125 bra BB0_100;
GPGPU-Sim PTX:    immediate post dominator      @  PC=0x3888 (cutlass-test.1.sm_70.ptx:2246) add.s64 %rd79, %rd78, %rd52;
GPGPU-Sim PTX: 120 (potential) branch divergence @  PC=0x3868 (cutlass-test.1.sm_70.ptx:2238) bra.uni BB0_99;
GPGPU-Sim PTX:    immediate post dominator      @  PC=0x3870 (cutlass-test.1.sm_70.ptx:2241) shl.b64 %rd273, %rd78, 2;
GPGPU-Sim PTX: 121 (potential) branch divergence @  PC=0x38a8 (cutlass-test.1.sm_70.ptx:2250) @!%p128 bra BB0_102;
GPGPU-Sim PTX:    immediate post dominator      @  PC=0x38d0 (cutlass-test.1.sm_70.ptx:2259) add.s64 %rd279, %rd79, %rd52;
GPGPU-Sim PTX: 122 (potential) branch divergence @  PC=0x38b0 (cutlass-test.1.sm_70.ptx:2251) bra.uni BB0_101;
GPGPU-Sim PTX:    immediate post dominator      @  PC=0x38b8 (cutlass-test.1.sm_70.ptx:2254) shl.b64 %rd276, %rd79, 2;
GPGPU-Sim PTX: 123 (potential) branch divergence @  PC=0x3900 (cutlass-test.1.sm_70.ptx:2265) @!%p131 bra BB0_140;
GPGPU-Sim PTX:    immediate post dominator      @  PC=0x3918 (cutlass-test.1.sm_70.ptx:2272) ret;
GPGPU-Sim PTX: 124 (potential) branch divergence @  PC=0x3908 (cutlass-test.1.sm_70.ptx:2266) bra.uni BB0_103;
GPGPU-Sim PTX:    immediate post dominator      @  PC=0x3910 (cutlass-test.1.sm_70.ptx:2269) st.global.v4.f32 [%rd80], {%f191, %f192, %f193, %f194};
GPGPU-Sim PTX: ... end of reconvergence points for _ZN7cutlass4gemm11gemm_kernelINS0_4GemmINS0_14WmmaGemmTraitsILNS_12MatrixLayout4KindE0ELS5_1ENS_5ShapeILi32ELi128ELi128ELi1EEEfNS0_13LinearScalingIfNS0_19FragmentMultiplyAddIfEEEEfNS6_ILi32ELi32ELi64ELi1EEENS6_ILi16ELi16ELi16ELi1EEELi8ELi8EiNS0_20WmmaGemmTraitsHelperILS5_0ELS5_1ES7_ffSB_SC_SD_Li8ELi8EiEEEEEEEEvNT_6ParamsE
GPGPU-Sim PTX: ... done pre-decoding instructions for '_ZN7cutlass4gemm11gemm_kernelINS0_4GemmINS0_14WmmaGemmTraitsILNS_12MatrixLayout4KindE0ELS5_1ENS_5ShapeILi32ELi128ELi128ELi1EEEfNS0_13LinearScalingIfNS0_19FragmentMultiplyAddIfEEEEfNS6_ILi32ELi32ELi64ELi1EEENS6_ILi16ELi16ELi16ELi1EEELi8ELi8EiNS0_20WmmaGemmTraitsHelperILS5_0ELS5_1ES7_ffSB_SC_SD_Li8ELi8EiEEEEEEEEvNT_6ParamsE'.
GPGPU-Sim PTX: pushing kernel '_ZN7cutlass4gemm11gemm_kernelINS0_4GemmINS0_14WmmaGemmTraitsILNS_12MatrixLayout4KindE0ELS5_1ENS_5ShapeILi32ELi128ELi128ELi1EEEfNS0_13LinearScalingIfNS0_19FragmentMultiplyAddIfEEEEfNS6_ILi32ELi32ELi64ELi1EEENS6_ILi16ELi16ELi16ELi1EEELi8ELi8EiNS0_20WmmaGemmTraitsHelperILS5_0ELS5_1ES7_ffSB_SC_SD_Li8ELi8EiEEEEEEEEvNT_6ParamsE' to stream 0, gridDim= (2,2,1) blockDim = (256,1,1) 
GPGPU-Sim uArch: Shader 0 bind to kernel 1 '_ZN7cutlass4gemm11gemm_kernelINS0_4GemmINS0_14WmmaGemmTraitsILNS_12MatrixLayout4KindE0ELS5_1ENS_5ShapeILi32ELi128ELi128ELi1EEEfNS0_13LinearScalingIfNS0_19FragmentMultiplyAddIfEEEEfNS6_ILi32ELi32ELi64ELi1EEENS6_ILi16ELi16ELi16ELi1EEELi8ELi8EiNS0_20WmmaGemmTraitsHelperILS5_0ELS5_1ES7_ffSB_SC_SD_Li8ELi8EiEEEEEEEEvNT_6ParamsE'
GPGPU-Sim uArch: CTA/core = 0, limited by: regs
GPGPU-Sim uArch: ERROR ** Kernel requires more resources than shader has.
GPGPU-Sim uArch: gpgpu_ignore_resources_limitation is set, ignore the ERROR!
GPGPU-Sim uArch: ERROR ** Kernel requires more resources than shader has.
GPGPU-Sim uArch: gpgpu_ignore_resources_limitation is set, ignore the ERROR!
GPGPU-Sim uArch: Shader 2 bind to kernel 1 '_ZN7cutlass4gemm11gemm_kernelINS0_4GemmINS0_14WmmaGemmTraitsILNS_12MatrixLayout4KindE0ELS5_1ENS_5ShapeILi32ELi128ELi128ELi1EEEfNS0_13LinearScalingIfNS0_19FragmentMultiplyAddIfEEEEfNS6_ILi32ELi32ELi64ELi1EEENS6_ILi16ELi16ELi16ELi1EEELi8ELi8EiNS0_20WmmaGemmTraitsHelperILS5_0ELS5_1ES7_ffSB_SC_SD_Li8ELi8EiEEEEEEEEvNT_6ParamsE'
GPGPU-Sim uArch: ERROR ** Kernel requires more resources than shader has.
GPGPU-Sim uArch: gpgpu_ignore_resources_limitation is set, ignore the ERROR!
GPGPU-Sim uArch: ERROR ** Kernel requires more resources than shader has.
GPGPU-Sim uArch: gpgpu_ignore_resources_limitation is set, ignore the ERROR!
GPGPU-Sim uArch: Shader 4 bind to kernel 1 '_ZN7cutlass4gemm11gemm_kernelINS0_4GemmINS0_14WmmaGemmTraitsILNS_12MatrixLayout4KindE0ELS5_1ENS_5ShapeILi32ELi128ELi128ELi1EEEfNS0_13LinearScalingIfNS0_19FragmentMultiplyAddIfEEEEfNS6_ILi32ELi32ELi64ELi1EEENS6_ILi16ELi16ELi16ELi1EEELi8ELi8EiNS0_20WmmaGemmTraitsHelperILS5_0ELS5_1ES7_ffSB_SC_SD_Li8ELi8EiEEEEEEEEvNT_6ParamsE'
GPGPU-Sim uArch: ERROR ** Kernel requires more resources than shader has.
GPGPU-Sim uArch: gpgpu_ignore_resources_limitation is set, ignore the ERROR!
GPGPU-Sim uArch: ERROR ** Kernel requires more resources than shader has.
GPGPU-Sim uArch: gpgpu_ignore_resources_limitation is set, ignore the ERROR!
GPGPU-Sim uArch: Shader 6 bind to kernel 1 '_ZN7cutlass4gemm11gemm_kernelINS0_4GemmINS0_14WmmaGemmTraitsILNS_12MatrixLayout4KindE0ELS5_1ENS_5ShapeILi32ELi128ELi128ELi1EEEfNS0_13LinearScalingIfNS0_19FragmentMultiplyAddIfEEEEfNS6_ILi32ELi32ELi64ELi1EEENS6_ILi16ELi16ELi16ELi1EEELi8ELi8EiNS0_20WmmaGemmTraitsHelperILS5_0ELS5_1ES7_ffSB_SC_SD_Li8ELi8EiEEEEEEEEvNT_6ParamsE'
GPGPU-Sim uArch: ERROR ** Kernel requires more resources than shader has.
GPGPU-Sim uArch: gpgpu_ignore_resources_limitation is set, ignore the ERROR!
GPGPU-Sim uArch: ERROR ** Kernel requires more resources than shader has.
GPGPU-Sim uArch: gpgpu_ignore_resources_limitation is set, ignore the ERROR!


GPGPU-Sim uArch: ERROR ** deadlock detected: last writeback core 6 @ gpu_sim_cycle 7957 (+ gpu_tot_sim_cycle 4294867296) (92043 cycles ago)
GPGPU-Sim uArch: DEADLOCK  shader cores no longer committing instructions [core(# threads)]:
GPGPU-Sim uArch: DEADLOCK  0(256) 1(0) 2(256) 3(0) 4(256) 5(0) 6(256) 7(0) 

Re-run the simulator in gdb and use debug routines in .gdbinit to debug this
