

        *** GPGPU-Sim Simulator Version 4.0.0  [build gpgpu-sim_git-commit-b1fdc6da937e638fc1cf735829613f1037bbbf1a_modified_0.0] ***


GPGPU-Sim PTX: simulation mode 0 (can change with PTX_SIM_MODE_FUNC environment variable:
               1=functional simulation only, 0=detailed performance simulator)
GPGPU-Sim PTX: overriding embedded ptx with ptx file (PTX_SIM_USE_PTX_FILE is set)
GPGPU-Sim: Configuration options:

-save_embedded_ptx                      0 # saves ptx files embedded in binary as <n>.ptx
-keep                                   0 # keep intermediate files created by GPGPU-Sim when interfacing with external programs
-gpgpu_ptx_save_converted_ptxplus                    0 # Saved converted ptxplus to a file
-gpgpu_occupancy_sm_number                   62 # The SM number to pass to ptxas when getting register usage for computing GPU occupancy. This parameter is required in the config.
-ptx_opcode_latency_int      4,13,4,5,145,32 # Opcode latencies for integers <ADD,MAX,MUL,MAD,DIV,SHFL>Default 1,1,19,25,145,32
-ptx_opcode_latency_fp          4,13,4,5,39 # Opcode latencies for single precision floating points <ADD,MAX,MUL,MAD,DIV>Default 1,1,1,1,30
-ptx_opcode_latency_dp         8,19,8,8,330 # Opcode latencies for double precision floating points <ADD,MAX,MUL,MAD,DIV>Default 8,8,8,8,335
-ptx_opcode_latency_sfu                    8 # Opcode latencies for SFU instructionsDefault 8
-ptx_opcode_latency_tesnor                   64 # Opcode latencies for Tensor instructionsDefault 64
-ptx_opcode_initiation_int          1,1,1,1,4,4 # Opcode initiation intervals for integers <ADD,MAX,MUL,MAD,DIV,SHFL>Default 1,1,4,4,32,4
-ptx_opcode_initiation_fp            1,2,1,1,4 # Opcode initiation intervals for single precision floating points <ADD,MAX,MUL,MAD,DIV>Default 1,1,1,1,5
-ptx_opcode_initiation_dp          8,8,8,8,130 # Opcode initiation intervals for double precision floating points <ADD,MAX,MUL,MAD,DIV>Default 8,8,8,8,130
-ptx_opcode_initiation_sfu                    4 # Opcode initiation intervals for sfu instructionsDefault 8
-ptx_opcode_initiation_tensor                   64 # Opcode initiation intervals for tensor instructionsDefault 64
-cdp_latency         7200,8000,100,12000,1600 # CDP API latency <cudaStreamCreateWithFlags, cudaGetParameterBufferV2_init_perWarp, cudaGetParameterBufferV2_perKernel, cudaLaunchDeviceV2_init_perWarp, cudaLaunchDevicV2_perKernel>Default 7200,8000,100,12000,1600
-network_mode                           1 # Interconnection network mode
-inter_config_file   config_pascal_islip.icnt # Interconnection network config file
-inct_in_buffer_limit                   64 # in_buffer_limit
-inct_out_buffer_limit                   64 # out_buffer_limit
-inct_subnets                           2 # subnets
-arbiter_algo                           1 # arbiter_algo
-gpgpu_ptx_use_cuobjdump                    1 # Use cuobjdump to extract ptx and sass from binaries
-gpgpu_experimental_lib_support                    0 # Try to extract code from cuda libraries [Broken because of unknown cudaGetExportTable]
-checkpoint_option                      0 #  checkpointing flag (0 = no checkpoint)
-checkpoint_kernel                      1 #  checkpointing during execution of which kernel (1- 1st kernel)
-checkpoint_CTA                         0 #  checkpointing after # of CTA (< less than total CTA)
-resume_option                          0 #  resume flag (0 = no resume)
-resume_kernel                          0 #  Resume from which kernel (1= 1st kernel)
-resume_CTA                             0 #  resume from which CTA 
-checkpoint_CTA_t                       0 #  resume from which CTA 
-checkpoint_insn_Y                      0 #  resume from which CTA 
-gpgpu_ptx_convert_to_ptxplus                    0 # Convert SASS (native ISA) to ptxplus and run ptxplus
-gpgpu_ptx_force_max_capability                   61 # Force maximum compute capability
-gpgpu_ptx_inst_debug_to_file                    0 # Dump executed instructions' debug information to file
-gpgpu_ptx_inst_debug_file       inst_debug.txt # Executed instructions' debug output file
-gpgpu_ptx_inst_debug_thread_uid                    1 # Thread UID for executed instructions' debug output
-gpgpu_simd_model                       1 # 1 = post-dominator
-gpgpu_shader_core_pipeline              1024:32 # shader core pipeline config, i.e., {<nthread>:<warpsize>}
-gpgpu_tex_cache:l1  N:16:128:24,L:R:m:N:L,T:128:4,128:2 # per-shader L1 texture cache  (READ-ONLY) config  {<nsets>:<bsize>:<assoc>,<rep>:<wr>:<alloc>:<wr_alloc>,<mshr>:<N>:<merge>,<mq>:<rf>}
-gpgpu_const_cache:l1 N:128:64:2,L:R:f:N:L,S:2:64,4 # per-shader L1 constant memory cache  (READ-ONLY) config  {<nsets>:<bsize>:<assoc>,<rep>:<wr>:<alloc>:<wr_alloc>,<mshr>:<N>:<merge>,<mq>} 
-gpgpu_cache:il1     N:8:128:4,L:R:f:N:L,S:2:48,4 # shader L1 instruction cache config  {<nsets>:<bsize>:<assoc>,<rep>:<wr>:<alloc>:<wr_alloc>,<mshr>:<N>:<merge>,<mq>} 
-gpgpu_cache:dl1     S:4:128:48,L:L:s:N:L,A:256:8,16:0,32 # per-shader L1 data cache config  {<nsets>:<bsize>:<assoc>,<rep>:<wr>:<alloc>:<wr_alloc>,<mshr>:<N>:<merge>,<mq> | none}
-l1_banks                               1 # The number of L1 cache banks
-l1_latency                            82 # L1 Hit Latency
-smem_latency                          24 # smem Latency
-gpgpu_cache:dl1PrefL1 S:4:128:48,L:L:s:N:L,A:256:8,16:0,32 # per-shader L1 data cache config  {<nsets>:<bsize>:<assoc>,<rep>:<wr>:<alloc>:<wr_alloc>,<mshr>:<N>:<merge>,<mq> | none}
-gpgpu_cache:dl1PrefShared S:4:128:48,L:L:s:N:L,A:256:8,16:0,32 # per-shader L1 data cache config  {<nsets>:<bsize>:<assoc>,<rep>:<wr>:<alloc>:<wr_alloc>,<mshr>:<N>:<merge>,<mq> | none}
-gmem_skip_L1D                          1 # global memory access skip L1D cache (implements -Xptxas -dlcm=cg, default=no skip)
-gpgpu_perfect_mem                      0 # enable perfect memory mode (no cache miss)
-n_regfile_gating_group                    4 # group of lanes that should be read/written together)
-gpgpu_clock_gated_reg_file                    0 # enable clock gated reg file for power calculations
-gpgpu_clock_gated_lanes                    0 # enable clock gated lanes for power calculations
-gpgpu_shader_registers                32768 # Number of registers per shader core. Limits number of concurrent CTAs. (default 8192)
-gpgpu_registers_per_block                 8192 # Maximum number of registers per CTA. (default 8192)
-gpgpu_ignore_resources_limitation                    1 # gpgpu_ignore_resources_limitation (default 0)
-gpgpu_shader_cta                      16 # Maximum number of concurrent CTAs in shader (default 8)
-gpgpu_num_cta_barriers                   16 # Maximum number of named barriers per CTA (default 16)
-gpgpu_n_clusters                      28 # number of processing clusters
-gpgpu_n_cores_per_cluster                    2 # number of simd cores per cluster
-gpgpu_n_cluster_ejection_buffer_size                   32 # number of packets in ejection buffer
-gpgpu_n_ldst_response_buffer_size                    2 # number of response packets in ld/st unit ejection buffer
-gpgpu_shmem_per_block                49152 # Size of shared memory per thread block or CTA (default 48kB)
-gpgpu_shmem_size                   49152 # Size of shared memory per shader core (default 16kB)
-adaptive_cache_config                    0 # adaptive_cache_config
-gpgpu_shmem_sizeDefault                49152 # Size of shared memory per shader core (default 16kB)
-gpgpu_shmem_size_PrefL1                49152 # Size of shared memory per shader core (default 16kB)
-gpgpu_shmem_size_PrefShared                49152 # Size of shared memory per shader core (default 16kB)
-gpgpu_shmem_num_banks                   32 # Number of banks in the shared memory in each shader core (default 16)
-gpgpu_shmem_limited_broadcast                    0 # Limit shared memory to do one broadcast per cycle (default on)
-gpgpu_shmem_warp_parts                    1 # Number of portions a warp is divided into for shared memory bank conflict check 
-mem_unit_ports                         1 # The number of memory transactions allowed per core cycle
-gpgpu_shmem_warp_parts                    1 # Number of portions a warp is divided into for shared memory bank conflict check 
-gpgpu_warpdistro_shader                   -1 # Specify which shader core to collect the warp size distribution from
-gpgpu_warp_issue_shader                    0 # Specify which shader core to collect the warp issue distribution from
-gpgpu_local_mem_map                    1 # Mapping from local memory space address to simulated GPU physical address space (default = enabled)
-gpgpu_num_reg_banks                   32 # Number of register banks (default = 8)
-gpgpu_reg_bank_use_warp_id                    0 # Use warp ID in mapping registers to banks (default = off)
-sub_core_model                         0 # Sub Core Volta/Pascal model (default = off)
-enable_specialized_operand_collector                    1 # enable_specialized_operand_collector
-gpgpu_operand_collector_num_units_sp                   12 # number of collector units (default = 4)
-gpgpu_operand_collector_num_units_dp                    6 # number of collector units (default = 0)
-gpgpu_operand_collector_num_units_sfu                    6 # number of collector units (default = 4)
-gpgpu_operand_collector_num_units_int                    0 # number of collector units (default = 0)
-gpgpu_operand_collector_num_units_tensor_core                    4 # number of collector units (default = 4)
-gpgpu_operand_collector_num_units_mem                    8 # number of collector units (default = 2)
-gpgpu_operand_collector_num_units_gen                    0 # number of collector units (default = 0)
-gpgpu_operand_collector_num_in_ports_sp                    2 # number of collector unit in ports (default = 1)
-gpgpu_operand_collector_num_in_ports_dp                    1 # number of collector unit in ports (default = 0)
-gpgpu_operand_collector_num_in_ports_sfu                    2 # number of collector unit in ports (default = 1)
-gpgpu_operand_collector_num_in_ports_int                    0 # number of collector unit in ports (default = 0)
-gpgpu_operand_collector_num_in_ports_tensor_core                    1 # number of collector unit in ports (default = 1)
-gpgpu_operand_collector_num_in_ports_mem                    1 # number of collector unit in ports (default = 1)
-gpgpu_operand_collector_num_in_ports_gen                    0 # number of collector unit in ports (default = 0)
-gpgpu_operand_collector_num_out_ports_sp                    2 # number of collector unit in ports (default = 1)
-gpgpu_operand_collector_num_out_ports_dp                    1 # number of collector unit in ports (default = 0)
-gpgpu_operand_collector_num_out_ports_sfu                    2 # number of collector unit in ports (default = 1)
-gpgpu_operand_collector_num_out_ports_int                    0 # number of collector unit in ports (default = 0)
-gpgpu_operand_collector_num_out_ports_tensor_core                    1 # number of collector unit in ports (default = 1)
-gpgpu_operand_collector_num_out_ports_mem                    1 # number of collector unit in ports (default = 1)
-gpgpu_operand_collector_num_out_ports_gen                    0 # number of collector unit in ports (default = 0)
-gpgpu_coalesce_arch                   61 # Coalescing arch (GT200 = 13, Fermi = 20)
-gpgpu_num_sched_per_core                    2 # Number of warp schedulers per core
-gpgpu_max_insn_issue_per_warp                    2 # Max number of instructions that can be issued per warp in one cycle by scheduler (either 1 or 2)
-gpgpu_dual_issue_diff_exec_units                    1 # should dual issue use two different execution unit resources (Default = 1)
-gpgpu_simt_core_sim_order                    1 # Select the simulation order of cores in a cluster (0=Fix, 1=Round-Robin)
-gpgpu_pipeline_widths 2,1,0,2,1,2,1,0,2,1,5 # Pipeline widths ID_OC_SP,ID_OC_DP,ID_OC_INT,ID_OC_SFU,ID_OC_MEM,OC_EX_SP,OC_EX_DP,OC_EX_INT,OC_EX_SFU,OC_EX_MEM,EX_WB,ID_OC_TENSOR_CORE,OC_EX_TENSOR_CORE
-gpgpu_tensor_core_avail                    0 # Tensor Core Available (default=0)
-gpgpu_num_sp_units                     2 # Number of SP units (default=1)
-gpgpu_num_dp_units                     1 # Number of DP units (default=0)
-gpgpu_num_int_units                    0 # Number of INT units (default=0)
-gpgpu_num_sfu_units                    2 # Number of SF units (default=1)
-gpgpu_num_tensor_core_units                    1 # Number of tensor_core units (default=1)
-gpgpu_num_mem_units                    1 # Number if ldst units (default=1) WARNING: not hooked up to anything
-gpgpu_scheduler                      gto # Scheduler configuration: < lrr | gto | two_level_active > If two_level_active:<num_active_warps>:<inner_prioritization>:<outer_prioritization>For complete list of prioritization values see shader.h enum scheduler_prioritization_typeDefault: gto
-gpgpu_concurrent_kernel_sm                    0 # Support concurrent kernels on a SM (default = disabled)
-perf_sim_memcpy                        1 # Fill the L2 cache on memcpy
-simple_dram_model                      0 # simple_dram_model with fixed latency and BW
-gpgpu_dram_scheduler                    1 # 0 = fifo, 1 = FR-FCFS (defaul)
-gpgpu_dram_partition_queues          32:32:32:32 # i2$:$2d:d2$:$2i
-l2_ideal                               0 # Use a ideal L2 cache that always hit
-gpgpu_cache:dl2     S:64:128:16,L:B:m:L:L,A:256:64,16:0,32 # unified banked L2 data cache config  {<nsets>:<bsize>:<assoc>,<rep>:<wr>:<alloc>:<wr_alloc>,<mshr>:<N>:<merge>,<mq>}
-gpgpu_cache:dl2_texture_only                    0 # L2 cache used for texture only
-gpgpu_n_mem                           12 # number of memory modules (e.g. memory controllers) in gpu
-gpgpu_n_sub_partition_per_mchannel                    2 # number of memory subpartition in each memory module
-gpgpu_n_mem_per_ctrlr                    1 # number of memory chips per memory controller
-gpgpu_memlatency_stat                   14 # track and display latency statistics 0x2 enables MC, 0x4 enables queue logs
-gpgpu_frfcfs_dram_sched_queue_size                   64 # 0 = unlimited (default); # entries per chip
-gpgpu_dram_return_queue_size                   64 # 0 = unlimited (default); # entries per chip
-gpgpu_dram_buswidth                    4 # default = 4 bytes (8 bytes per cycle at DDR)
-gpgpu_dram_burst_length                    8 # Burst length of each DRAM request (default = 4 data bus cycle)
-dram_data_command_freq_ratio                    4 # Frequency ratio between DRAM data bus and command bus (default = 2 times, i.e. DDR)
-gpgpu_dram_timing_opt nbk=16:CCD=2:RRD=8:RCD=16:RAS=37:RP=16:RC=52: CL=16:WL=6:CDLR=7:WR=16:nbkgrp=4:CCDL=4:RTPL=3 # DRAM timing parameters = {nbk:tCCD:tRRD:tRCD:tRAS:tRP:tRC:CL:WL:tCDLR:tWR:nbkgrp:tCCDL:tRTPL}
-rop_latency                          120 # ROP queue latency (default 85)
-dram_latency                         100 # DRAM latency (default 30)
-dual_bus_interface                     0 # dual_bus_interface (default = 0) 
-dram_bnk_indexing_policy                    0 # dram_bnk_indexing_policy (0 = normal indexing, 1 = Xoring with the higher bits) (Default = 0)
-dram_bnkgrp_indexing_policy                    1 # dram_bnkgrp_indexing_policy (0 = take higher bits, 1 = take lower bits) (Default = 0)
-Seperate_Write_Queue_Enable                    0 # Seperate_Write_Queue_Enable
-Write_Queue_Size                32:28:16 # Write_Queue_Size
-Elimnate_rw_turnaround                    0 # elimnate_rw_turnaround i.e set tWTR and tRTW = 0
-icnt_flit_size                        40 # icnt_flit_size
-gpgpu_mem_addr_mapping dramid@8;00000000.00000000.00000000.00000000.0000RRRR.RRRRRRRR.RBBBCCCC.BCCSSSSS # mapping memory address to dram model {dramid@<start bit>;<memory address map>}
-gpgpu_mem_addr_test                    0 # run sweep test to check address mapping for aliased address
-gpgpu_mem_address_mask                    1 # 0 = old addressing mask, 1 = new addressing mask, 2 = new add. mask + flipped bank sel and chip sel bits
-memory_partition_indexing                    0 # 0 = no indexing, 1 = bitwise xoring, 2 = IPoly, 3 = custom indexing
-gpuwattch_xml_file         gpuwattch.xml # GPUWattch XML file
-power_simulation_enabled                    0 # Turn on power simulator (1=On, 0=Off)
-power_per_cycle_dump                    0 # Dump detailed power output each cycle
-power_trace_enabled                    0 # produce a file for the power trace (1=On, 0=Off)
-power_trace_zlevel                     6 # Compression level of the power trace output log (0=no comp, 9=highest)
-steady_power_levels_enabled                    0 # produce a file for the steady power levels (1=On, 0=Off)
-steady_state_definition                  8:4 # allowed deviation:number of samples
-gpgpu_max_cycle                        0 # terminates gpu simulation early (0 = no limit)
-gpgpu_max_insn                         0 # terminates gpu simulation early (0 = no limit)
-gpgpu_max_cta                          0 # terminates gpu simulation early (0 = no limit)
-gpgpu_max_completed_cta                    0 # terminates gpu simulation early (0 = no limit)
-gpgpu_runtime_stat                   500 # display runtime statistics such as dram utilization {<freq>:<flag>}
-liveness_message_freq                    1 # Minimum number of seconds between simulation liveness messages (0 = always print)
-gpgpu_compute_capability_major                    6 # Major compute capability version number
-gpgpu_compute_capability_minor                    1 # Minor compute capability version number
-gpgpu_flush_l1_cache                    1 # Flush L1 cache at the end of each kernel call
-gpgpu_flush_l2_cache                    0 # Flush L2 cache at the end of each kernel call
-gpgpu_deadlock_detect                    1 # Stop the simulation at deadlock (1=on (default), 0=off)
-gpgpu_ptx_instruction_classification                    0 # if enabled will classify ptx instruction types per kernel (Max 255 kernels now)
-gpgpu_ptx_sim_mode                     0 # Select between Performance (default) or Functional simulation (1)
-gpgpu_clock_domains 1417.0:1417.0:1417.0:2500.0 # Clock Domain Frequencies in MhZ {<Core Clock>:<ICNT Clock>:<L2 Clock>:<DRAM Clock>}
-gpgpu_max_concurrent_kernel                    8 # maximum kernels that can run concurrently on GPU
-gpgpu_cflog_interval                    0 # Interval between each snapshot in control flow logger
-visualizer_enabled                     0 # Turn on visualizer output (1=On, 0=Off)
-visualizer_outputfile                 NULL # Specifies the output log file for visualizer
-visualizer_zlevel                      6 # Compression level of the visualizer output log (0=no comp, 9=highest)
-gpgpu_stack_size_limit                 1024 # GPU thread stack size
-gpgpu_heap_size_limit              8388608 # GPU malloc heap size 
-gpgpu_runtime_sync_depth_limit                    2 # GPU device runtime synchronize depth
-gpgpu_runtime_pending_launch_count_limit                 2048 # GPU device runtime pending launch count
-trace_enabled                          0 # Turn on traces
-trace_components                    none # comma seperated list of traces to enable. Complete list found in trace_streams.tup. Default none
-trace_sampling_core                    0 # The core which is printed using CORE_DPRINTF. Default 0
-trace_sampling_memory_partition                   -1 # The memory partition which is printed using MEMPART_DPRINTF. Default -1 (i.e. all)
-enable_ptx_file_line_stats                    1 # Turn on PTX source line statistic profiling. (1 = On)
-ptx_line_stats_filename gpgpu_inst_stats.txt # Output file for PTX source line statistics.
-gpgpu_kernel_launch_latency                    0 # Kernel launch latency in cycles. Default: 0
-gpgpu_cdp_enabled                      0 # Turn on CDP
DRAM Timing Options:
nbk                                    16 # number of banks
CCD                                     2 # column to column delay
RRD                                     8 # minimal delay between activation of rows in different banks
RCD                                    16 # row to column delay
RAS                                    37 # time needed to activate row
RP                                     16 # time needed to precharge (deactivate) row
RC                                     52 # row cycle time
CDLR                                    7 # switching from write to read (changes tWTR)
WR                                     16 # last data-in to row precharge
CL                                     16 # CAS latency
WL                                      6 # Write latency
nbkgrp                                  4 # number of bank groups
CCDL                                    4 # column to column delay between accesses to different bank groups
RTPL                                    3 # read to precharge delay between accesses to different bank groups
Total number of memory sub partition = 24
addr_dec_mask[CHIP]  = 0000000000000000 	high:64 low:0
addr_dec_mask[BK]    = 0000000000007080 	high:15 low:7
addr_dec_mask[ROW]   = 000000000fff8000 	high:28 low:15
addr_dec_mask[COL]   = 0000000000000f7f 	high:12 low:0
addr_dec_mask[BURST] = 000000000000001f 	high:5 low:0
sub_partition_id_mask = 0000000000000080
GPGPU-Sim uArch: clock freqs: 1417000000.000000:1417000000.000000:1417000000.000000:2500000000.000000
GPGPU-Sim uArch: clock periods: 0.00000000070571630205:0.00000000070571630205:0.00000000070571630205:0.00000000040000000000
*** Initializing Memory Statistics ***
GPGPU-Sim uArch: interconnect node map (shaderID+MemID to icntID)
GPGPU-Sim uArch: Memory nodes ID start from index: 28
GPGPU-Sim uArch:    0   1   2   3   4   5   6
GPGPU-Sim uArch:    7   8   9  10  11  12  13
GPGPU-Sim uArch:   14  15  16  17  18  19  20
GPGPU-Sim uArch:   21  22  23  24  25  26  27
GPGPU-Sim uArch:   28  29  30  31  32  33  34
GPGPU-Sim uArch:   35  36  37  38  39  40  41
GPGPU-Sim uArch:   42  43  44  45  46  47  48
GPGPU-Sim uArch:   49  50  51
GPGPU-Sim uArch: interconnect node reverse map (icntID to shaderID+MemID)
GPGPU-Sim uArch: Memory nodes start from ID: 28
GPGPU-Sim uArch:    0   1   2   3   4   5   6
GPGPU-Sim uArch:    7   8   9  10  11  12  13
GPGPU-Sim uArch:   14  15  16  17  18  19  20
GPGPU-Sim uArch:   21  22  23  24  25  26  27
GPGPU-Sim uArch:   28  29  30  31  32  33  34
GPGPU-Sim uArch:   35  36  37  38  39  40  41
GPGPU-Sim uArch:   42  43  44  45  46  47  48
GPGPU-Sim uArch:   49  50  51
e4ab91ad5e9445b73c6e4f1be5dd7ac3  /home/ee557/Desktop/p4/cutlass-gpgpu-sim/cutlass-test
Extracting PTX file and ptxas options    1: cutlass-test.1.sm_70.ptx -arch=sm_70
GPGPU-Sim uArch: performance model initialization complete.
self exe links to: /home/ee557/Desktop/p4/cutlass-gpgpu-sim/cutlass-test
self exe links to: /home/ee557/Desktop/p4/cutlass-gpgpu-sim/cutlass-test
9.1
GPGPU-Sim PTX: __cudaRegisterFatBinary, fat_cubin_handle = 1, filename=default
self exe links to: /home/ee557/Desktop/p4/cutlass-gpgpu-sim/cutlass-test
Running md5sum using "md5sum /home/ee557/Desktop/p4/cutlass-gpgpu-sim/cutlass-test "
self exe links to: /home/ee557/Desktop/p4/cutlass-gpgpu-sim/cutlass-test
Extracting specific PTX file named cutlass-test.1.sm_70.ptx 
GPGPU-Sim PTX: __cudaRegisterFunction _ZN7cutlass4gemm11gemm_kernelINS0_4GemmINS0_11DgemmTraitsILNS_12MatrixLayout4KindE1ELS5_0ENS_5ShapeILi8ELi64ELi64ELi1EEENS0_13LinearScalingIdNS0_19FragmentMultiplyAddIdEEEENS6_ILi8ELi8ELi8ELi1EEELi1ELi1EiNS0_11DgemmConfigIS7_SC_Li1ELi1EEENS0_28SimplifiedGemmEpilogueTraitsISE_SB_iNS0_24GemmEpilogueTraitsHelperISE_SB_iEEEEEEEEEEvNT_6ParamsE : hostFun 0x0x402d09, fat_cubin_handle = 1
GPGPU-Sim PTX: Parsing cutlass-test.1.sm_70.ptx
GPGPU-Sim PTX: allocating stack frame region for .param "__assertfail_param_0" from 0x0 to 0x8
GPGPU-Sim PTX: allocating stack frame region for .param "__assertfail_param_1" from 0x8 to 0x10
GPGPU-Sim PTX: allocating stack frame region for .param "__assertfail_param_2" from 0x10 to 0x14
GPGPU-Sim PTX: allocating stack frame region for .param "__assertfail_param_3" from 0x14 to 0x1c
GPGPU-Sim PTX: allocating stack frame region for .param "__assertfail_param_4" from 0x1c to 0x24
GPGPU-Sim PTX: allocating global region for "__unnamed_1" from 0x100 to 0x18f (global memory space)
GPGPU-Sim PTX: allocating global region for "__unnamed_2" from 0x200 to 0x290 (global memory space)
GPGPU-Sim PTX: allocating global region for "__unnamed_3" from 0x300 to 0x38f (global memory space)
GPGPU-Sim PTX: allocating global region for "__unnamed_4" from 0x400 to 0x48e (global memory space)
GPGPU-Sim PTX: allocating global region for "$str" from 0x500 to 0x50f (global memory space)
GPGPU-Sim PTX: allocating global region for "$str1" from 0x580 to 0x595 (global memory space)
GPGPU-Sim PTX: allocating shared region for "_ZN7cutlass4gemm11gemm_kernelINS0_4GemmINS0_11DgemmTraitsILNS_12MatrixLayout4KindE1ELS5_0ENS_5ShapeILi8ELi64ELi64ELi1EEENS0_13LinearScalingIdNS0_19FragmentMultiplyAddIdEEEENS6_ILi8ELi8ELi8ELi1EEELi1ELi1EiNS0_11DgemmConfigIS7_SC_Li1ELi1EEENS0_28SimplifiedGemmEpilogueTraitsISE_SB_iNS0_24GemmEpilogueTraitsHelperISE_SB_iEEEEEEEEEEvNT_6ParamsE$__cuda_local_var_31507_57_non_const_shared_storage" from 0x0 to 0x4010 (shared memory space)
GPGPU-Sim PTX: allocating stack frame region for .param "param0" from 0x0 to 0x8
GPGPU-Sim PTX: allocating stack frame region for .param "param1" from 0x8 to 0x10
GPGPU-Sim PTX: allocating stack frame region for .param "param2" from 0x10 to 0x14
GPGPU-Sim PTX: allocating stack frame region for .param "param3" from 0x14 to 0x1c
GPGPU-Sim PTX: allocating stack frame region for .param "param4" from 0x1c to 0x24
GPGPU-Sim PTX: allocating stack frame region for .param "param0" from 0x24 to 0x2c
GPGPU-Sim PTX: allocating stack frame region for .param "param1" from 0x2c to 0x34
GPGPU-Sim PTX: allocating stack frame region for .param "param2" from 0x34 to 0x38
GPGPU-Sim PTX: allocating stack frame region for .param "param3" from 0x38 to 0x40
GPGPU-Sim PTX: allocating stack frame region for .param "param4" from 0x40 to 0x48
GPGPU-Sim PTX: allocating stack frame region for .param "param0" from 0x48 to 0x50
GPGPU-Sim PTX: allocating stack frame region for .param "param1" from 0x50 to 0x58
GPGPU-Sim PTX: allocating stack frame region for .param "param2" from 0x58 to 0x5c
GPGPU-Sim PTX: allocating stack frame region for .param "param3" from 0x5c to 0x64
GPGPU-Sim PTX: allocating stack frame region for .param "param4" from 0x64 to 0x6c
GPGPU-Sim PTX: allocating stack frame region for .param "param0" from 0x6c to 0x74
GPGPU-Sim PTX: allocating stack frame region for .param "param1" from 0x74 to 0x7c
GPGPU-Sim PTX: allocating stack frame region for .param "param2" from 0x7c to 0x80
GPGPU-Sim PTX: allocating stack frame region for .param "param3" from 0x80 to 0x88
GPGPU-Sim PTX: allocating stack frame region for .param "param4" from 0x88 to 0x90
GPGPU-Sim PTX: allocating stack frame region for .param "param0" from 0x90 to 0x98
GPGPU-Sim PTX: allocating stack frame region for .param "param1" from 0x98 to 0xa0
GPGPU-Sim PTX: allocating stack frame region for .param "param2" from 0xa0 to 0xa4
GPGPU-Sim PTX: allocating stack frame region for .param "param3" from 0xa4 to 0xac
GPGPU-Sim PTX: allocating stack frame region for .param "param4" from 0xac to 0xb4
GPGPU-Sim PTX: allocating stack frame region for .param "param0" from 0xb4 to 0xbc
GPGPU-Sim PTX: allocating stack frame region for .param "param1" from 0xbc to 0xc4
GPGPU-Sim PTX: allocating stack frame region for .param "param2" from 0xc4 to 0xc8
GPGPU-Sim PTX: allocating stack frame region for .param "param3" from 0xc8 to 0xd0
GPGPU-Sim PTX: allocating stack frame region for .param "param4" from 0xd0 to 0xd8
GPGPU-Sim PTX: allocating stack frame region for .param "param0" from 0xd8 to 0xe0
GPGPU-Sim PTX: allocating stack frame region for .param "param1" from 0xe0 to 0xe8
GPGPU-Sim PTX: allocating stack frame region for .param "param2" from 0xe8 to 0xec
GPGPU-Sim PTX: allocating stack frame region for .param "param3" from 0xec to 0xf4
GPGPU-Sim PTX: allocating stack frame region for .param "param4" from 0xf4 to 0xfc
GPGPU-Sim PTX: allocating stack frame region for .param "param0" from 0xfc to 0x104
GPGPU-Sim PTX: allocating stack frame region for .param "param1" from 0x104 to 0x10c
GPGPU-Sim PTX: allocating stack frame region for .param "param2" from 0x10c to 0x110
GPGPU-Sim PTX: allocating stack frame region for .param "param3" from 0x110 to 0x118
GPGPU-Sim PTX: allocating stack frame region for .param "param4" from 0x118 to 0x120
GPGPU-Sim PTX: allocating stack frame region for .param "param0" from 0x120 to 0x128
GPGPU-Sim PTX: allocating stack frame region for .param "param1" from 0x128 to 0x130
GPGPU-Sim PTX: allocating stack frame region for .param "param2" from 0x130 to 0x134
GPGPU-Sim PTX: allocating stack frame region for .param "param3" from 0x134 to 0x13c
GPGPU-Sim PTX: allocating stack frame region for .param "param4" from 0x13c to 0x144
GPGPU-Sim PTX: allocating stack frame region for .param "param0" from 0x144 to 0x14c
GPGPU-Sim PTX: allocating stack frame region for .param "param1" from 0x14c to 0x154
GPGPU-Sim PTX: allocating stack frame region for .param "param2" from 0x154 to 0x158
GPGPU-Sim PTX: allocating stack frame region for .param "param3" from 0x158 to 0x160
GPGPU-Sim PTX: allocating stack frame region for .param "param4" from 0x160 to 0x168
GPGPU-Sim PTX: allocating stack frame region for .param "param0" from 0x168 to 0x170
GPGPU-Sim PTX: allocating stack frame region for .param "param1" from 0x170 to 0x178
GPGPU-Sim PTX: allocating stack frame region for .param "param2" from 0x178 to 0x17c
GPGPU-Sim PTX: allocating stack frame region for .param "param3" from 0x17c to 0x184
GPGPU-Sim PTX: allocating stack frame region for .param "param4" from 0x184 to 0x18c
GPGPU-Sim PTX: allocating stack frame region for .param "param0" from 0x18c to 0x194
GPGPU-Sim PTX: allocating stack frame region for .param "param1" from 0x194 to 0x19c
GPGPU-Sim PTX: allocating stack frame region for .param "param2" from 0x19c to 0x1a0
GPGPU-Sim PTX: allocating stack frame region for .param "param3" from 0x1a0 to 0x1a8
GPGPU-Sim PTX: allocating stack frame region for .param "param4" from 0x1a8 to 0x1b0
GPGPU-Sim PTX: allocating stack frame region for .param "param0" from 0x1b0 to 0x1b8
GPGPU-Sim PTX: allocating stack frame region for .param "param1" from 0x1b8 to 0x1c0
GPGPU-Sim PTX: allocating stack frame region for .param "param2" from 0x1c0 to 0x1c4
GPGPU-Sim PTX: allocating stack frame region for .param "param3" from 0x1c4 to 0x1cc
GPGPU-Sim PTX: allocating stack frame region for .param "param4" from 0x1cc to 0x1d4
GPGPU-Sim PTX: allocating stack frame region for .param "param0" from 0x1d4 to 0x1dc
GPGPU-Sim PTX: allocating stack frame region for .param "param1" from 0x1dc to 0x1e4
GPGPU-Sim PTX: allocating stack frame region for .param "param2" from 0x1e4 to 0x1e8
GPGPU-Sim PTX: allocating stack frame region for .param "param3" from 0x1e8 to 0x1f0
GPGPU-Sim PTX: allocating stack frame region for .param "param4" from 0x1f0 to 0x1f8
GPGPU-Sim PTX: allocating stack frame region for .param "param0" from 0x1f8 to 0x200
GPGPU-Sim PTX: allocating stack frame region for .param "param1" from 0x200 to 0x208
GPGPU-Sim PTX: allocating stack frame region for .param "param2" from 0x208 to 0x20c
GPGPU-Sim PTX: allocating stack frame region for .param "param3" from 0x20c to 0x214
GPGPU-Sim PTX: allocating stack frame region for .param "param4" from 0x214 to 0x21c
GPGPU-Sim PTX: allocating stack frame region for .param "param0" from 0x21c to 0x224
GPGPU-Sim PTX: allocating stack frame region for .param "param1" from 0x224 to 0x22c
GPGPU-Sim PTX: allocating stack frame region for .param "param2" from 0x22c to 0x230
GPGPU-Sim PTX: allocating stack frame region for .param "param3" from 0x230 to 0x238
GPGPU-Sim PTX: allocating stack frame region for .param "param4" from 0x238 to 0x240
GPGPU-Sim PTX: allocating stack frame region for .param "param0" from 0x240 to 0x248
GPGPU-Sim PTX: allocating stack frame region for .param "param1" from 0x248 to 0x250
GPGPU-Sim PTX: allocating stack frame region for .param "param2" from 0x250 to 0x254
GPGPU-Sim PTX: allocating stack frame region for .param "param3" from 0x254 to 0x25c
GPGPU-Sim PTX: allocating stack frame region for .param "param4" from 0x25c to 0x264
GPGPU-Sim PTX: allocating stack frame region for .param "param0" from 0x264 to 0x26c
GPGPU-Sim PTX: allocating stack frame region for .param "param1" from 0x26c to 0x274
GPGPU-Sim PTX: allocating stack frame region for .param "param2" from 0x274 to 0x278
GPGPU-Sim PTX: allocating stack frame region for .param "param3" from 0x278 to 0x280
GPGPU-Sim PTX: allocating stack frame region for .param "param4" from 0x280 to 0x288
GPGPU-Sim PTX: allocating stack frame region for .param "param0" from 0x288 to 0x290
GPGPU-Sim PTX: allocating stack frame region for .param "param1" from 0x290 to 0x298
GPGPU-Sim PTX: allocating stack frame region for .param "param2" from 0x298 to 0x29c
GPGPU-Sim PTX: allocating stack frame region for .param "param3" from 0x29c to 0x2a4
GPGPU-Sim PTX: allocating stack frame region for .param "param4" from 0x2a4 to 0x2ac
GPGPU-Sim PTX: allocating stack frame region for .param "param0" from 0x2ac to 0x2b4
GPGPU-Sim PTX: allocating stack frame region for .param "param1" from 0x2b4 to 0x2bc
GPGPU-Sim PTX: allocating stack frame region for .param "param2" from 0x2bc to 0x2c0
GPGPU-Sim PTX: allocating stack frame region for .param "param3" from 0x2c0 to 0x2c8
GPGPU-Sim PTX: allocating stack frame region for .param "param4" from 0x2c8 to 0x2d0
GPGPU-Sim PTX: instruction assembly for function '_ZN7cutlass4gemm11gemm_kernelINS0_4GemmINS0_11DgemmTraitsILNS_12MatrixLayout4KindE1ELS5_0ENS_5ShapeILi8ELi64ELi64ELi1EEENS0_13LinearScalingIdNS0_19FragmentMultiplyAddIdEEEENS6_ILi8ELi8ELi8ELi1EEELi1ELi1EiNS0_11DgemmConfigIS7_SC_Li1ELi1EEENS0_28SimplifiedGemmEpilogueTraitsISE_SB_iNS0_24GemmEpilogueTraitsHelperISE_SB_iEEEEEEEEEEvNT_6ParamsE'...   done.
GPGPU-Sim PTX: finished parsing EMBEDDED .ptx file cutlass-test.1.sm_70.ptx
GPGPU-Sim PTX: loading globals with explicit initializers... 
GPGPU-Sim PTX:     initializing '__unnamed_1' ...  wrote 143 bytes
GPGPU-Sim PTX:     initializing '__unnamed_2' ...  wrote 144 bytes
GPGPU-Sim PTX:     initializing '__unnamed_3' ...  wrote 143 bytes
GPGPU-Sim PTX:     initializing '__unnamed_4' ...  wrote 142 bytes
GPGPU-Sim PTX:     initializing '$str' ...  wrote 15 bytes
GPGPU-Sim PTX:     initializing '$str1' ...  wrote 21 bytes
GPGPU-Sim PTX: finished loading globals (608 bytes total).
GPGPU-Sim PTX: loading constants with explicit initializers...  done.
GPGPU-Sim PTX: Loading PTXInfo from cutlass-test.1.sm_70.ptx
GPGPU-Sim PTX: Kernel '_ZN7cutlass4gemm11gemm_kernelINS0_4GemmINS0_11DgemmTraitsILNS_12MatrixLayout4KindE1ELS5_0ENS_5ShapeILi8ELi64ELi64ELi1EEENS0_13LinearScalingIdNS0_19FragmentMultiplyAddIdEEEENS6_ILi8ELi8ELi8ELi1EEELi1ELi1EiNS0_11DgemmConfigIS7_SC_Li1ELi1EEENS0_28SimplifiedGemmEpilogueTraitsISE_SB_iNS0_24GemmEpilogueTraitsHelperISE_SB_iEEEEEEEEEEvNT_6ParamsE' : regs=255, lmem=0, smem=16400, cmem=792
self exe links to: /home/ee557/Desktop/p4/cutlass-gpgpu-sim/cutlass-test
self exe links to: /home/ee557/Desktop/p4/cutlass-gpgpu-sim/cutlass-test
9.1
GPGPU-Sim PTX: __cudaRegisterFatBinary, fat_cubin_handle = 2, filename=default
GPGPU-Sim PTX: __cudaRegisterFunction __nv_static_51__38_cuda_device_runtime_compute_70_cpp1_ii_8b1a5d37__Z16memcpy_3d_deviceImLi1ELi1ELi1EEvPKhPhT_S3_S3_S3_S3_S3_S3_jjjjjjjjS3_S1_S2_ : hostFun 0x0x408500, fat_cubin_handle = 2
Warning: cannot find deviceFun __nv_static_51__38_cuda_device_runtime_compute_70_cpp1_ii_8b1a5d37__Z16memcpy_3d_deviceImLi1ELi1ELi1EEvPKhPhT_S3_S3_S3_S3_S3_S3_jjjjjjjjS3_S1_S2_
GPGPU-Sim PTX: __cudaRegisterFunction __nv_static_51__38_cuda_device_runtime_compute_70_cpp1_ii_8b1a5d37__Z16memcpy_3d_deviceImLi1ELi1ELi0EEvPKhPhT_S3_S3_S3_S3_S3_S3_jjjjjjjjS3_S1_S2_ : hostFun 0x0x408790, fat_cubin_handle = 2
Warning: cannot find deviceFun __nv_static_51__38_cuda_device_runtime_compute_70_cpp1_ii_8b1a5d37__Z16memcpy_3d_deviceImLi1ELi1ELi0EEvPKhPhT_S3_S3_S3_S3_S3_S3_jjjjjjjjS3_S1_S2_
GPGPU-Sim PTX: __cudaRegisterFunction __nv_static_51__38_cuda_device_runtime_compute_70_cpp1_ii_8b1a5d37__Z16memcpy_3d_deviceImLi1ELi0ELi1EEvPKhPhT_S3_S3_S3_S3_S3_S3_jjjjjjjjS3_S1_S2_ : hostFun 0x0x408a20, fat_cubin_handle = 2
Warning: cannot find deviceFun __nv_static_51__38_cuda_device_runtime_compute_70_cpp1_ii_8b1a5d37__Z16memcpy_3d_deviceImLi1ELi0ELi1EEvPKhPhT_S3_S3_S3_S3_S3_S3_jjjjjjjjS3_S1_S2_
GPGPU-Sim PTX: __cudaRegisterFunction __nv_static_51__38_cuda_device_runtime_compute_70_cpp1_ii_8b1a5d37__Z16memcpy_3d_deviceImLi1ELi0ELi0EEvPKhPhT_S3_S3_S3_S3_S3_S3_jjjjjjjjS3_S1_S2_ : hostFun 0x0x408cb0, fat_cubin_handle = 2
Warning: cannot find deviceFun __nv_static_51__38_cuda_device_runtime_compute_70_cpp1_ii_8b1a5d37__Z16memcpy_3d_deviceImLi1ELi0ELi0EEvPKhPhT_S3_S3_S3_S3_S3_S3_jjjjjjjjS3_S1_S2_
GPGPU-Sim PTX: __cudaRegisterFunction __nv_static_51__38_cuda_device_runtime_compute_70_cpp1_ii_8b1a5d37__Z16memcpy_3d_deviceImLi0ELi1ELi1EEvPKhPhT_S3_S3_S3_S3_S3_S3_jjjjjjjjS3_S1_S2_ : hostFun 0x0x408f40, fat_cubin_handle = 2
Warning: cannot find deviceFun __nv_static_51__38_cuda_device_runtime_compute_70_cpp1_ii_8b1a5d37__Z16memcpy_3d_deviceImLi0ELi1ELi1EEvPKhPhT_S3_S3_S3_S3_S3_S3_jjjjjjjjS3_S1_S2_
GPGPU-Sim PTX: __cudaRegisterFunction __nv_static_51__38_cuda_device_runtime_compute_70_cpp1_ii_8b1a5d37__Z16memcpy_3d_deviceImLi0ELi1ELi0EEvPKhPhT_S3_S3_S3_S3_S3_S3_jjjjjjjjS3_S1_S2_ : hostFun 0x0x4091d0, fat_cubin_handle = 2
Warning: cannot find deviceFun __nv_static_51__38_cuda_device_runtime_compute_70_cpp1_ii_8b1a5d37__Z16memcpy_3d_deviceImLi0ELi1ELi0EEvPKhPhT_S3_S3_S3_S3_S3_S3_jjjjjjjjS3_S1_S2_
GPGPU-Sim PTX: __cudaRegisterFunction __nv_static_51__38_cuda_device_runtime_compute_70_cpp1_ii_8b1a5d37__Z16memcpy_3d_deviceImLi0ELi0ELi1EEvPKhPhT_S3_S3_S3_S3_S3_S3_jjjjjjjjS3_S1_S2_ : hostFun 0x0x409460, fat_cubin_handle = 2
Warning: cannot find deviceFun __nv_static_51__38_cuda_device_runtime_compute_70_cpp1_ii_8b1a5d37__Z16memcpy_3d_deviceImLi0ELi0ELi1EEvPKhPhT_S3_S3_S3_S3_S3_S3_jjjjjjjjS3_S1_S2_
GPGPU-Sim PTX: __cudaRegisterFunction __nv_static_51__38_cuda_device_runtime_compute_70_cpp1_ii_8b1a5d37__Z16memcpy_3d_deviceImLi0ELi0ELi0EEvPKhPhT_S3_S3_S3_S3_S3_S3_jjjjjjjjS3_S1_S2_ : hostFun 0x0x4096f0, fat_cubin_handle = 2
Warning: cannot find deviceFun __nv_static_51__38_cuda_device_runtime_compute_70_cpp1_ii_8b1a5d37__Z16memcpy_3d_deviceImLi0ELi0ELi0EEvPKhPhT_S3_S3_S3_S3_S3_S3_jjjjjjjjS3_S1_S2_
GPGPU-Sim PTX: __cudaRegisterFunction __nv_static_51__38_cuda_device_runtime_compute_70_cpp1_ii_8b1a5d37__Z16memcpy_3d_deviceIjLi1ELi1ELi1EEvPKhPhT_S3_S3_S3_S3_S3_S3_jjjjjjjjS3_S1_S2_ : hostFun 0x0x409970, fat_cubin_handle = 2
Warning: cannot find deviceFun __nv_static_51__38_cuda_device_runtime_compute_70_cpp1_ii_8b1a5d37__Z16memcpy_3d_deviceIjLi1ELi1ELi1EEvPKhPhT_S3_S3_S3_S3_S3_S3_jjjjjjjjS3_S1_S2_
GPGPU-Sim PTX: __cudaRegisterFunction __nv_static_51__38_cuda_device_runtime_compute_70_cpp1_ii_8b1a5d37__Z16memcpy_3d_deviceIjLi1ELi1ELi0EEvPKhPhT_S3_S3_S3_S3_S3_S3_jjjjjjjjS3_S1_S2_ : hostFun 0x0x409bf0, fat_cubin_handle = 2
Warning: cannot find deviceFun __nv_static_51__38_cuda_device_runtime_compute_70_cpp1_ii_8b1a5d37__Z16memcpy_3d_deviceIjLi1ELi1ELi0EEvPKhPhT_S3_S3_S3_S3_S3_S3_jjjjjjjjS3_S1_S2_
GPGPU-Sim PTX: __cudaRegisterFunction __nv_static_51__38_cuda_device_runtime_compute_70_cpp1_ii_8b1a5d37__Z16memcpy_3d_deviceIjLi1ELi0ELi1EEvPKhPhT_S3_S3_S3_S3_S3_S3_jjjjjjjjS3_S1_S2_ : hostFun 0x0x409e70, fat_cubin_handle = 2
Warning: cannot find deviceFun __nv_static_51__38_cuda_device_runtime_compute_70_cpp1_ii_8b1a5d37__Z16memcpy_3d_deviceIjLi1ELi0ELi1EEvPKhPhT_S3_S3_S3_S3_S3_S3_jjjjjjjjS3_S1_S2_
GPGPU-Sim PTX: __cudaRegisterFunction __nv_static_51__38_cuda_device_runtime_compute_70_cpp1_ii_8b1a5d37__Z16memcpy_3d_deviceIjLi1ELi0ELi0EEvPKhPhT_S3_S3_S3_S3_S3_S3_jjjjjjjjS3_S1_S2_ : hostFun 0x0x40a0f0, fat_cubin_handle = 2
Warning: cannot find deviceFun __nv_static_51__38_cuda_device_runtime_compute_70_cpp1_ii_8b1a5d37__Z16memcpy_3d_deviceIjLi1ELi0ELi0EEvPKhPhT_S3_S3_S3_S3_S3_S3_jjjjjjjjS3_S1_S2_
GPGPU-Sim PTX: __cudaRegisterFunction __nv_static_51__38_cuda_device_runtime_compute_70_cpp1_ii_8b1a5d37__Z16memcpy_3d_deviceIjLi0ELi1ELi1EEvPKhPhT_S3_S3_S3_S3_S3_S3_jjjjjjjjS3_S1_S2_ : hostFun 0x0x40a370, fat_cubin_handle = 2
Warning: cannot find deviceFun __nv_static_51__38_cuda_device_runtime_compute_70_cpp1_ii_8b1a5d37__Z16memcpy_3d_deviceIjLi0ELi1ELi1EEvPKhPhT_S3_S3_S3_S3_S3_S3_jjjjjjjjS3_S1_S2_
GPGPU-Sim PTX: __cudaRegisterFunction __nv_static_51__38_cuda_device_runtime_compute_70_cpp1_ii_8b1a5d37__Z16memcpy_3d_deviceIjLi0ELi1ELi0EEvPKhPhT_S3_S3_S3_S3_S3_S3_jjjjjjjjS3_S1_S2_ : hostFun 0x0x40a5f0, fat_cubin_handle = 2
Warning: cannot find deviceFun __nv_static_51__38_cuda_device_runtime_compute_70_cpp1_ii_8b1a5d37__Z16memcpy_3d_deviceIjLi0ELi1ELi0EEvPKhPhT_S3_S3_S3_S3_S3_S3_jjjjjjjjS3_S1_S2_
GPGPU-Sim PTX: __cudaRegisterFunction __nv_static_51__38_cuda_device_runtime_compute_70_cpp1_ii_8b1a5d37__Z16memcpy_3d_deviceIjLi0ELi0ELi1EEvPKhPhT_S3_S3_S3_S3_S3_S3_jjjjjjjjS3_S1_S2_ : hostFun 0x0x40a870, fat_cubin_handle = 2
Warning: cannot find deviceFun __nv_static_51__38_cuda_device_runtime_compute_70_cpp1_ii_8b1a5d37__Z16memcpy_3d_deviceIjLi0ELi0ELi1EEvPKhPhT_S3_S3_S3_S3_S3_S3_jjjjjjjjS3_S1_S2_
GPGPU-Sim PTX: __cudaRegisterFunction __nv_static_51__38_cuda_device_runtime_compute_70_cpp1_ii_8b1a5d37__Z16memcpy_3d_deviceIjLi0ELi0ELi0EEvPKhPhT_S3_S3_S3_S3_S3_S3_jjjjjjjjS3_S1_S2_ : hostFun 0x0x40aaf0, fat_cubin_handle = 2
Warning: cannot find deviceFun __nv_static_51__38_cuda_device_runtime_compute_70_cpp1_ii_8b1a5d37__Z16memcpy_3d_deviceIjLi0ELi0ELi0EEvPKhPhT_S3_S3_S3_S3_S3_S3_jjjjjjjjS3_S1_S2_
GPGPU-Sim PTX: __cudaRegisterFunction __nv_static_51__38_cuda_device_runtime_compute_70_cpp1_ii_8b1a5d37__Z16memset_3d_deviceImLi1ELi1ELi1EEvPhhjT_S1_S1_S1_S1_jjjjjjjS1_S0_ : hostFun 0x0x40ad10, fat_cubin_handle = 2
Warning: cannot find deviceFun __nv_static_51__38_cuda_device_runtime_compute_70_cpp1_ii_8b1a5d37__Z16memset_3d_deviceImLi1ELi1ELi1EEvPhhjT_S1_S1_S1_S1_jjjjjjjS1_S0_
GPGPU-Sim PTX: __cudaRegisterFunction __nv_static_51__38_cuda_device_runtime_compute_70_cpp1_ii_8b1a5d37__Z16memset_3d_deviceImLi1ELi1ELi0EEvPhhjT_S1_S1_S1_S1_jjjjjjjS1_S0_ : hostFun 0x0x40af30, fat_cubin_handle = 2
Warning: cannot find deviceFun __nv_static_51__38_cuda_device_runtime_compute_70_cpp1_ii_8b1a5d37__Z16memset_3d_deviceImLi1ELi1ELi0EEvPhhjT_S1_S1_S1_S1_jjjjjjjS1_S0_
GPGPU-Sim PTX: __cudaRegisterFunction __nv_static_51__38_cuda_device_runtime_compute_70_cpp1_ii_8b1a5d37__Z16memset_3d_deviceImLi1ELi0ELi1EEvPhhjT_S1_S1_S1_S1_jjjjjjjS1_S0_ : hostFun 0x0x40b150, fat_cubin_handle = 2
Warning: cannot find deviceFun __nv_static_51__38_cuda_device_runtime_compute_70_cpp1_ii_8b1a5d37__Z16memset_3d_deviceImLi1ELi0ELi1EEvPhhjT_S1_S1_S1_S1_jjjjjjjS1_S0_
GPGPU-Sim PTX: __cudaRegisterFunction __nv_static_51__38_cuda_device_runtime_compute_70_cpp1_ii_8b1a5d37__Z16memset_3d_deviceImLi1ELi0ELi0EEvPhhjT_S1_S1_S1_S1_jjjjjjjS1_S0_ : hostFun 0x0x40b370, fat_cubin_handle = 2
Warning: cannot find deviceFun __nv_static_51__38_cuda_device_runtime_compute_70_cpp1_ii_8b1a5d37__Z16memset_3d_deviceImLi1ELi0ELi0EEvPhhjT_S1_S1_S1_S1_jjjjjjjS1_S0_
GPGPU-Sim PTX: __cudaRegisterFunction __nv_static_51__38_cuda_device_runtime_compute_70_cpp1_ii_8b1a5d37__Z16memset_3d_deviceImLi0ELi1ELi1EEvPhhjT_S1_S1_S1_S1_jjjjjjjS1_S0_ : hostFun 0x0x40b590, fat_cubin_handle = 2
Warning: cannot find deviceFun __nv_static_51__38_cuda_device_runtime_compute_70_cpp1_ii_8b1a5d37__Z16memset_3d_deviceImLi0ELi1ELi1EEvPhhjT_S1_S1_S1_S1_jjjjjjjS1_S0_
GPGPU-Sim PTX: __cudaRegisterFunction __nv_static_51__38_cuda_device_runtime_compute_70_cpp1_ii_8b1a5d37__Z16memset_3d_deviceImLi0ELi1ELi0EEvPhhjT_S1_S1_S1_S1_jjjjjjjS1_S0_ : hostFun 0x0x40b7b0, fat_cubin_handle = 2
Warning: cannot find deviceFun __nv_static_51__38_cuda_device_runtime_compute_70_cpp1_ii_8b1a5d37__Z16memset_3d_deviceImLi0ELi1ELi0EEvPhhjT_S1_S1_S1_S1_jjjjjjjS1_S0_
GPGPU-Sim PTX: __cudaRegisterFunction __nv_static_51__38_cuda_device_runtime_compute_70_cpp1_ii_8b1a5d37__Z16memset_3d_deviceImLi0ELi0ELi1EEvPhhjT_S1_S1_S1_S1_jjjjjjjS1_S0_ : hostFun 0x0x40b9d0, fat_cubin_handle = 2
Warning: cannot find deviceFun __nv_static_51__38_cuda_device_runtime_compute_70_cpp1_ii_8b1a5d37__Z16memset_3d_deviceImLi0ELi0ELi1EEvPhhjT_S1_S1_S1_S1_jjjjjjjS1_S0_
GPGPU-Sim PTX: __cudaRegisterFunction __nv_static_51__38_cuda_device_runtime_compute_70_cpp1_ii_8b1a5d37__Z16memset_3d_deviceImLi0ELi0ELi0EEvPhhjT_S1_S1_S1_S1_jjjjjjjS1_S0_ : hostFun 0x0x40bbf0, fat_cubin_handle = 2
Warning: cannot find deviceFun __nv_static_51__38_cuda_device_runtime_compute_70_cpp1_ii_8b1a5d37__Z16memset_3d_deviceImLi0ELi0ELi0EEvPhhjT_S1_S1_S1_S1_jjjjjjjS1_S0_
GPGPU-Sim PTX: __cudaRegisterFunction __nv_static_51__38_cuda_device_runtime_compute_70_cpp1_ii_8b1a5d37__Z16memset_3d_deviceIjLi1ELi1ELi1EEvPhhjT_S1_S1_S1_S1_jjjjjjjS1_S0_ : hostFun 0x0x40be10, fat_cubin_handle = 2
Warning: cannot find deviceFun __nv_static_51__38_cuda_device_runtime_compute_70_cpp1_ii_8b1a5d37__Z16memset_3d_deviceIjLi1ELi1ELi1EEvPhhjT_S1_S1_S1_S1_jjjjjjjS1_S0_
GPGPU-Sim PTX: __cudaRegisterFunction __nv_static_51__38_cuda_device_runtime_compute_70_cpp1_ii_8b1a5d37__Z16memset_3d_deviceIjLi1ELi1ELi0EEvPhhjT_S1_S1_S1_S1_jjjjjjjS1_S0_ : hostFun 0x0x40c030, fat_cubin_handle = 2
Warning: cannot find deviceFun __nv_static_51__38_cuda_device_runtime_compute_70_cpp1_ii_8b1a5d37__Z16memset_3d_deviceIjLi1ELi1ELi0EEvPhhjT_S1_S1_S1_S1_jjjjjjjS1_S0_
GPGPU-Sim PTX: __cudaRegisterFunction __nv_static_51__38_cuda_device_runtime_compute_70_cpp1_ii_8b1a5d37__Z16memset_3d_deviceIjLi1ELi0ELi1EEvPhhjT_S1_S1_S1_S1_jjjjjjjS1_S0_ : hostFun 0x0x40c250, fat_cubin_handle = 2
Warning: cannot find deviceFun __nv_static_51__38_cuda_device_runtime_compute_70_cpp1_ii_8b1a5d37__Z16memset_3d_deviceIjLi1ELi0ELi1EEvPhhjT_S1_S1_S1_S1_jjjjjjjS1_S0_
GPGPU-Sim PTX: __cudaRegisterFunction __nv_static_51__38_cuda_device_runtime_compute_70_cpp1_ii_8b1a5d37__Z16memset_3d_deviceIjLi1ELi0ELi0EEvPhhjT_S1_S1_S1_S1_jjjjjjjS1_S0_ : hostFun 0x0x40c470, fat_cubin_handle = 2
Warning: cannot find deviceFun __nv_static_51__38_cuda_device_runtime_compute_70_cpp1_ii_8b1a5d37__Z16memset_3d_deviceIjLi1ELi0ELi0EEvPhhjT_S1_S1_S1_S1_jjjjjjjS1_S0_
GPGPU-Sim PTX: __cudaRegisterFunction __nv_static_51__38_cuda_device_runtime_compute_70_cpp1_ii_8b1a5d37__Z16memset_3d_deviceIjLi0ELi1ELi1EEvPhhjT_S1_S1_S1_S1_jjjjjjjS1_S0_ : hostFun 0x0x40c690, fat_cubin_handle = 2
Warning: cannot find deviceFun __nv_static_51__38_cuda_device_runtime_compute_70_cpp1_ii_8b1a5d37__Z16memset_3d_deviceIjLi0ELi1ELi1EEvPhhjT_S1_S1_S1_S1_jjjjjjjS1_S0_
GPGPU-Sim PTX: __cudaRegisterFunction __nv_static_51__38_cuda_device_runtime_compute_70_cpp1_ii_8b1a5d37__Z16memset_3d_deviceIjLi0ELi1ELi0EEvPhhjT_S1_S1_S1_S1_jjjjjjjS1_S0_ : hostFun 0x0x40c8b0, fat_cubin_handle = 2
Warning: cannot find deviceFun __nv_static_51__38_cuda_device_runtime_compute_70_cpp1_ii_8b1a5d37__Z16memset_3d_deviceIjLi0ELi1ELi0EEvPhhjT_S1_S1_S1_S1_jjjjjjjS1_S0_
GPGPU-Sim PTX: __cudaRegisterFunction __nv_static_51__38_cuda_device_runtime_compute_70_cpp1_ii_8b1a5d37__Z16memset_3d_deviceIjLi0ELi0ELi1EEvPhhjT_S1_S1_S1_S1_jjjjjjjS1_S0_ : hostFun 0x0x40cad0, fat_cubin_handle = 2
Warning: cannot find deviceFun __nv_static_51__38_cuda_device_runtime_compute_70_cpp1_ii_8b1a5d37__Z16memset_3d_deviceIjLi0ELi0ELi1EEvPhhjT_S1_S1_S1_S1_jjjjjjjS1_S0_
GPGPU-Sim PTX: __cudaRegisterFunction __nv_static_51__38_cuda_device_runtime_compute_70_cpp1_ii_8b1a5d37__Z16memset_3d_deviceIjLi0ELi0ELi0EEvPhhjT_S1_S1_S1_S1_jjjjjjjS1_S0_ : hostFun 0x0x40ccf0, fat_cubin_handle = 2
Warning: cannot find deviceFun __nv_static_51__38_cuda_device_runtime_compute_70_cpp1_ii_8b1a5d37__Z16memset_3d_deviceIjLi0ELi0ELi0EEvPhhjT_S1_S1_S1_S1_jjjjjjjS1_S0_
GPGPU-Sim PTX: __cudaRegisterVar: hostVar = 0x6a82c0; deviceAddress = __nv_static_51__38_cuda_device_runtime_compute_70_cpp1_ii_8b1a5d37_set_kernel32; deviceName = __nv_static_51__38_cuda_device_runtime_compute_70_cpp1_ii_8b1a5d37_set_kernel32
GPGPU-Sim PTX: __cudaRegisterVar: Registering const memory space of 64 bytes
GPGPU-Sim PTX registering constant __nv_static_51__38_cuda_device_runtime_compute_70_cpp1_ii_8b1a5d37_set_kernel32 (64 bytes) to name mapping
GPGPU-Sim PTX: __cudaRegisterVar: hostVar = 0x6a8300; deviceAddress = __nv_static_51__38_cuda_device_runtime_compute_70_cpp1_ii_8b1a5d37_set_kernel64; deviceName = __nv_static_51__38_cuda_device_runtime_compute_70_cpp1_ii_8b1a5d37_set_kernel64
GPGPU-Sim PTX: __cudaRegisterVar: Registering const memory space of 64 bytes
GPGPU-Sim PTX registering constant __nv_static_51__38_cuda_device_runtime_compute_70_cpp1_ii_8b1a5d37_set_kernel64 (64 bytes) to name mapping
GPGPU-Sim PTX: __cudaRegisterVar: hostVar = 0x6a8340; deviceAddress = __nv_static_51__38_cuda_device_runtime_compute_70_cpp1_ii_8b1a5d37_cpy_kernel32; deviceName = __nv_static_51__38_cuda_device_runtime_compute_70_cpp1_ii_8b1a5d37_cpy_kernel32
GPGPU-Sim PTX: __cudaRegisterVar: Registering const memory space of 64 bytes
GPGPU-Sim PTX registering constant __nv_static_51__38_cuda_device_runtime_compute_70_cpp1_ii_8b1a5d37_cpy_kernel32 (64 bytes) to name mapping
GPGPU-Sim PTX: __cudaRegisterVar: hostVar = 0x6a8380; deviceAddress = __nv_static_51__38_cuda_device_runtime_compute_70_cpp1_ii_8b1a5d37_cpy_kernel64; deviceName = __nv_static_51__38_cuda_device_runtime_compute_70_cpp1_ii_8b1a5d37_cpy_kernel64
GPGPU-Sim PTX: __cudaRegisterVar: Registering const memory space of 64 bytes
GPGPU-Sim PTX registering constant __nv_static_51__38_cuda_device_runtime_compute_70_cpp1_ii_8b1a5d37_cpy_kernel64 (64 bytes) to name mapping
GPGPU-Sim PTX: __cudaRegisterVar: hostVar = 0x6a7560; deviceAddress = __nv_static_51__38_cuda_device_runtime_compute_70_cpp1_ii_8b1a5d37_cudartErrorTableArr; deviceName = __nv_static_51__38_cuda_device_runtime_compute_70_cpp1_ii_8b1a5d37_cudartErrorTableArr
GPGPU-Sim PTX: __cudaRegisterVar: Registering const memory space of 1992 bytes
GPGPU-Sim PTX registering global __nv_static_51__38_cuda_device_runtime_compute_70_cpp1_ii_8b1a5d37_cudartErrorTableArr hostVar to name mapping
GPGPU-Sim PTX: __cudaRegisterVar: hostVar = 0x6a82a0; deviceAddress = cudartErrorTable; deviceName = cudartErrorTable
GPGPU-Sim PTX: __cudaRegisterVar: Registering const memory space of 8 bytes
GPGPU-Sim PTX registering global cudartErrorTable hostVar to name mapping
GPGPU-Sim PTX: __cudaRegisterVar: hostVar = 0x40fbe0; deviceAddress = cudartErrorTableEntryCount; deviceName = cudartErrorTableEntryCount
GPGPU-Sim PTX: __cudaRegisterVar: Registering const memory space of 4 bytes
GPGPU-Sim PTX registering global cudartErrorTableEntryCount hostVar to name mapping
GPGPU-Sim PTX: __cudaRegisterVar: hostVar = 0x40fc00; deviceAddress = __nv_static_51__38_cuda_device_runtime_compute_70_cpp1_ii_8b1a5d37_cudartErrorCnpMapArr; deviceName = __nv_static_51__38_cuda_device_runtime_compute_70_cpp1_ii_8b1a5d37_cudartErrorCnpMapArr
GPGPU-Sim PTX: __cudaRegisterVar: Registering const memory space of 104 bytes
GPGPU-Sim PTX registering global __nv_static_51__38_cuda_device_runtime_compute_70_cpp1_ii_8b1a5d37_cudartErrorCnpMapArr hostVar to name mapping
GPGPU-Sim PTX: __cudaRegisterVar: hostVar = 0x6a82a8; deviceAddress = cudartErrorCnpMap; deviceName = cudartErrorCnpMap
GPGPU-Sim PTX: __cudaRegisterVar: Registering const memory space of 8 bytes
GPGPU-Sim PTX registering global cudartErrorCnpMap hostVar to name mapping
GPGPU-Sim PTX: __cudaRegisterVar: hostVar = 0x40fbe4; deviceAddress = cudartErrorCnpMapEntryCount; deviceName = cudartErrorCnpMapEntryCount
GPGPU-Sim PTX: __cudaRegisterVar: Registering const memory space of 4 bytes
GPGPU-Sim PTX registering global cudartErrorCnpMapEntryCount hostVar to name mapping
GPGPU-Sim PTX: __cudaRegisterVar: hostVar = 0x6a82b0; deviceAddress = __CNPRT_VERSION_NUMBER__; deviceName = __CNPRT_VERSION_NUMBER__
GPGPU-Sim PTX: __cudaRegisterVar: Registering const memory space of 4 bytes
GPGPU-Sim PTX registering global __CNPRT_VERSION_NUMBER__ hostVar to name mapping
GPGPU-Sim PTX: Setting up arguments for 440 bytes starting at 0x7ffdc0fecdb0..

GPGPU-Sim PTX: cudaLaunch for 0x0x402d09 (mode=performance simulation) on stream 0
GPGPU-Sim PTX: finding reconvergence points for '_ZN7cutlass4gemm11gemm_kernelINS0_4GemmINS0_11DgemmTraitsILNS_12MatrixLayout4KindE1ELS5_0ENS_5ShapeILi8ELi64ELi64ELi1EEENS0_13LinearScalingIdNS0_19FragmentMultiplyAddIdEEEENS6_ILi8ELi8ELi8ELi1EEELi1ELi1EiNS0_11DgemmConfigIS7_SC_Li1ELi1EEENS0_28SimplifiedGemmEpilogueTraitsISE_SB_iNS0_24GemmEpilogueTraitsHelperISE_SB_iEEEEEEEEEEvNT_6ParamsE'...
GPGPU-Sim PTX: Finding dominators for '_ZN7cutlass4gemm11gemm_kernelINS0_4GemmINS0_11DgemmTraitsILNS_12MatrixLayout4KindE1ELS5_0ENS_5ShapeILi8ELi64ELi64ELi1EEENS0_13LinearScalingIdNS0_19FragmentMultiplyAddIdEEEENS6_ILi8ELi8ELi8ELi1EEELi1ELi1EiNS0_11DgemmConfigIS7_SC_Li1ELi1EEENS0_28SimplifiedGemmEpilogueTraitsISE_SB_iNS0_24GemmEpilogueTraitsHelperISE_SB_iEEEEEEEEEEvNT_6ParamsE'...
GPGPU-Sim PTX: Finding immediate dominators for '_ZN7cutlass4gemm11gemm_kernelINS0_4GemmINS0_11DgemmTraitsILNS_12MatrixLayout4KindE1ELS5_0ENS_5ShapeILi8ELi64ELi64ELi1EEENS0_13LinearScalingIdNS0_19FragmentMultiplyAddIdEEEENS6_ILi8ELi8ELi8ELi1EEELi1ELi1EiNS0_11DgemmConfigIS7_SC_Li1ELi1EEENS0_28SimplifiedGemmEpilogueTraitsISE_SB_iNS0_24GemmEpilogueTraitsHelperISE_SB_iEEEEEEEEEEvNT_6ParamsE'...
GPGPU-Sim PTX: Finding postdominators for '_ZN7cutlass4gemm11gemm_kernelINS0_4GemmINS0_11DgemmTraitsILNS_12MatrixLayout4KindE1ELS5_0ENS_5ShapeILi8ELi64ELi64ELi1EEENS0_13LinearScalingIdNS0_19FragmentMultiplyAddIdEEEENS6_ILi8ELi8ELi8ELi1EEELi1ELi1EiNS0_11DgemmConfigIS7_SC_Li1ELi1EEENS0_28SimplifiedGemmEpilogueTraitsISE_SB_iNS0_24GemmEpilogueTraitsHelperISE_SB_iEEEEEEEEEEvNT_6ParamsE'...
GPGPU-Sim PTX: Finding immediate postdominators for '_ZN7cutlass4gemm11gemm_kernelINS0_4GemmINS0_11DgemmTraitsILNS_12MatrixLayout4KindE1ELS5_0ENS_5ShapeILi8ELi64ELi64ELi1EEENS0_13LinearScalingIdNS0_19FragmentMultiplyAddIdEEEENS6_ILi8ELi8ELi8ELi1EEELi1ELi1EiNS0_11DgemmConfigIS7_SC_Li1ELi1EEENS0_28SimplifiedGemmEpilogueTraitsISE_SB_iNS0_24GemmEpilogueTraitsHelperISE_SB_iEEEEEEEEEEvNT_6ParamsE'...
GPGPU-Sim PTX: pre-decoding instructions for '_ZN7cutlass4gemm11gemm_kernelINS0_4GemmINS0_11DgemmTraitsILNS_12MatrixLayout4KindE1ELS5_0ENS_5ShapeILi8ELi64ELi64ELi1EEENS0_13LinearScalingIdNS0_19FragmentMultiplyAddIdEEEENS6_ILi8ELi8ELi8ELi1EEELi1ELi1EiNS0_11DgemmConfigIS7_SC_Li1ELi1EEENS0_28SimplifiedGemmEpilogueTraitsISE_SB_iNS0_24GemmEpilogueTraitsHelperISE_SB_iEEEEEEEEEEvNT_6ParamsE'...
GPGPU-Sim PTX: reconvergence points for _ZN7cutlass4gemm11gemm_kernelINS0_4GemmINS0_11DgemmTraitsILNS_12MatrixLayout4KindE1ELS5_0ENS_5ShapeILi8ELi64ELi64ELi1EEENS0_13LinearScalingIdNS0_19FragmentMultiplyAddIdEEEENS6_ILi8ELi8ELi8ELi1EEELi1ELi1EiNS0_11DgemmConfigIS7_SC_Li1ELi1EEENS0_28SimplifiedGemmEpilogueTraitsISE_SB_iNS0_24GemmEpilogueTraitsHelperISE_SB_iEEEEEEEEEEvNT_6ParamsE...
GPGPU-Sim PTX:  1 (potential) branch divergence @  PC=0x238 (cutlass-test.1.sm_70.ptx:114) @%p23 bra BB0_2;
GPGPU-Sim PTX:    immediate post dominator      @  PC=0x2b0 (cutlass-test.1.sm_70.ptx:152) mov.u32 %r227, %ctaid.y;
GPGPU-Sim PTX:  2 (potential) branch divergence @  PC=0x3d8 (cutlass-test.1.sm_70.ptx:189) @%p23 bra BB0_4;
GPGPU-Sim PTX:    immediate post dominator      @  PC=0x450 (cutlass-test.1.sm_70.ptx:227) setp.lt.s32%p39, %r25, 8;
GPGPU-Sim PTX:  3 (potential) branch divergence @  PC=0x458 (cutlass-test.1.sm_70.ptx:228) @%p39 bra BB0_7;
GPGPU-Sim PTX:    immediate post dominator      @  PC=0x6f0 (cutlass-test.1.sm_70.ptx:318) shl.b64 %rd942, %rd5, 3;
GPGPU-Sim PTX:  4 (potential) branch divergence @  PC=0x460 (cutlass-test.1.sm_70.ptx:229) bra.uni BB0_5;
GPGPU-Sim PTX:    immediate post dominator      @  PC=0x5a8 (cutlass-test.1.sm_70.ptx:274) setp.gt.s32%p40, %r25, 8;
GPGPU-Sim PTX:  5 (potential) branch divergence @  PC=0x5a0 (cutlass-test.1.sm_70.ptx:271) bra.uni BB0_8;
GPGPU-Sim PTX:    immediate post dominator      @  PC=0x6f0 (cutlass-test.1.sm_70.ptx:318) shl.b64 %rd942, %rd5, 3;
GPGPU-Sim PTX:  6 (potential) branch divergence @  PC=0x5b0 (cutlass-test.1.sm_70.ptx:275) @%p40 bra BB0_8;
GPGPU-Sim PTX:    immediate post dominator      @  PC=0x6f0 (cutlass-test.1.sm_70.ptx:318) shl.b64 %rd942, %rd5, 3;
GPGPU-Sim PTX:  7 (potential) branch divergence @  PC=0x720 (cutlass-test.1.sm_70.ptx:324) @!%p49 bra BB0_10;
GPGPU-Sim PTX:    immediate post dominator      @  PC=0x738 (cutlass-test.1.sm_70.ptx:331) and.b32 %r314, %r563, 2;
GPGPU-Sim PTX:  8 (potential) branch divergence @  PC=0x728 (cutlass-test.1.sm_70.ptx:325) bra.uni BB0_9;
GPGPU-Sim PTX:    immediate post dominator      @  PC=0x730 (cutlass-test.1.sm_70.ptx:328) ld.global.u64 %rd1708, [%rd7];
GPGPU-Sim PTX:  9 (potential) branch divergence @  PC=0x750 (cutlass-test.1.sm_70.ptx:334) @%p50 bra BB0_12;
GPGPU-Sim PTX:    immediate post dominator      @  PC=0x760 (cutlass-test.1.sm_70.ptx:339) cvt.s64.s32%rd12, %r10;
GPGPU-Sim PTX: 10 (potential) branch divergence @  PC=0x798 (cutlass-test.1.sm_70.ptx:346) @%p51 bra BB0_14;
GPGPU-Sim PTX:    immediate post dominator      @  PC=0x7a8 (cutlass-test.1.sm_70.ptx:351) and.b32 %r316, %r563, 8;
GPGPU-Sim PTX: 11 (potential) branch divergence @  PC=0x7c0 (cutlass-test.1.sm_70.ptx:354) @%p52 bra BB0_16;
GPGPU-Sim PTX:    immediate post dominator      @  PC=0x7d0 (cutlass-test.1.sm_70.ptx:359) add.s64 %rd19, %rd13, %rd12;
GPGPU-Sim PTX: 12 (potential) branch divergence @  PC=0x800 (cutlass-test.1.sm_70.ptx:365) @%p53 bra BB0_18;
GPGPU-Sim PTX:    immediate post dominator      @  PC=0x810 (cutlass-test.1.sm_70.ptx:370) and.b32 %r318, %r563, 512;
GPGPU-Sim PTX: 13 (potential) branch divergence @  PC=0x828 (cutlass-test.1.sm_70.ptx:373) @%p54 bra BB0_20;
GPGPU-Sim PTX:    immediate post dominator      @  PC=0x838 (cutlass-test.1.sm_70.ptx:378) add.s64 %rd25, %rd19, %rd12;
GPGPU-Sim PTX: 14 (potential) branch divergence @  PC=0x868 (cutlass-test.1.sm_70.ptx:384) @%p55 bra BB0_22;
GPGPU-Sim PTX:    immediate post dominator      @  PC=0x878 (cutlass-test.1.sm_70.ptx:389) and.b32 %r320, %r563, 2048;
GPGPU-Sim PTX: 15 (potential) branch divergence @  PC=0x890 (cutlass-test.1.sm_70.ptx:392) @%p56 bra BB0_24;
GPGPU-Sim PTX:    immediate post dominator      @  PC=0x8a0 (cutlass-test.1.sm_70.ptx:397) shl.b64 %rd954, %rd6, 3;
GPGPU-Sim PTX: 16 (potential) branch divergence @  PC=0x8e8 (cutlass-test.1.sm_70.ptx:406) @!%p57 bra BB0_26;
GPGPU-Sim PTX:    immediate post dominator      @  PC=0x900 (cutlass-test.1.sm_70.ptx:413) and.b32 %r322, %r562, 2;
GPGPU-Sim PTX: 17 (potential) branch divergence @  PC=0x8f0 (cutlass-test.1.sm_70.ptx:407) bra.uni BB0_25;
GPGPU-Sim PTX:    immediate post dominator      @  PC=0x8f8 (cutlass-test.1.sm_70.ptx:410) ld.global.u64 %rd1716, [%rd31];
GPGPU-Sim PTX: 18 (potential) branch divergence @  PC=0x918 (cutlass-test.1.sm_70.ptx:416) @%p58 bra BB0_28;
GPGPU-Sim PTX:    immediate post dominator      @  PC=0x928 (cutlass-test.1.sm_70.ptx:421) cvt.s64.s32%rd37, %r1;
GPGPU-Sim PTX: 19 (potential) branch divergence @  PC=0x960 (cutlass-test.1.sm_70.ptx:428) @%p59 bra BB0_30;
GPGPU-Sim PTX:    immediate post dominator      @  PC=0x970 (cutlass-test.1.sm_70.ptx:433) and.b32 %r324, %r562, 8;
GPGPU-Sim PTX: 20 (potential) branch divergence @  PC=0x988 (cutlass-test.1.sm_70.ptx:436) @%p60 bra BB0_32;
GPGPU-Sim PTX:    immediate post dominator      @  PC=0x998 (cutlass-test.1.sm_70.ptx:441) add.s64 %rd44, %rd38, %rd37;
GPGPU-Sim PTX: 21 (potential) branch divergence @  PC=0x9c8 (cutlass-test.1.sm_70.ptx:447) @%p61 bra BB0_34;
GPGPU-Sim PTX:    immediate post dominator      @  PC=0x9d8 (cutlass-test.1.sm_70.ptx:452) and.b32 %r326, %r562, 512;
GPGPU-Sim PTX: 22 (potential) branch divergence @  PC=0x9f0 (cutlass-test.1.sm_70.ptx:455) @%p62 bra BB0_36;
GPGPU-Sim PTX:    immediate post dominator      @  PC=0xa00 (cutlass-test.1.sm_70.ptx:460) add.s64 %rd50, %rd44, %rd37;
GPGPU-Sim PTX: 23 (potential) branch divergence @  PC=0xa30 (cutlass-test.1.sm_70.ptx:466) @%p63 bra BB0_38;
GPGPU-Sim PTX:    immediate post dominator      @  PC=0xa40 (cutlass-test.1.sm_70.ptx:471) and.b32 %r328, %r562, 2048;
GPGPU-Sim PTX: 24 (potential) branch divergence @  PC=0xa50 (cutlass-test.1.sm_70.ptx:473) @%p64 bra BB0_40;
GPGPU-Sim PTX:    immediate post dominator      @  PC=0xa60 (cutlass-test.1.sm_70.ptx:478) shl.b32 %r329, %r28, 3;
GPGPU-Sim PTX: 25 (potential) branch divergence @  PC=0xb40 (cutlass-test.1.sm_70.ptx:506) @%p65 bra BB0_42;
GPGPU-Sim PTX:    immediate post dominator      @  PC=0xbb8 (cutlass-test.1.sm_70.ptx:544) and.b32 %r334, %r20, 16;
GPGPU-Sim PTX: 26 (potential) branch divergence @  PC=0xc00 (cutlass-test.1.sm_70.ptx:553) @%p66 bra BB0_44;
GPGPU-Sim PTX:    immediate post dominator      @  PC=0xc78 (cutlass-test.1.sm_70.ptx:591) shl.b32 %r342, %r37, 3;
GPGPU-Sim PTX: 27 (potential) branch divergence @  PC=0xcf8 (cutlass-test.1.sm_70.ptx:607) @%p67 bra BB0_45;
GPGPU-Sim PTX:    immediate post dominator      @  PC=0x2db8 (cutlass-test.1.sm_70.ptx:1715) setp.lt.s32%p94, %r579, -7;
GPGPU-Sim PTX: 28 (potential) branch divergence @  PC=0xf58 (cutlass-test.1.sm_70.ptx:686) @%p68 bra BB0_49;
GPGPU-Sim PTX:    immediate post dominator      @  PC=0x1118 (cutlass-test.1.sm_70.ptx:745) and.b32 %r388, %r563, 1;
GPGPU-Sim PTX: 29 (potential) branch divergence @  PC=0x1128 (cutlass-test.1.sm_70.ptx:747) @!%p73 bra BB0_51;
GPGPU-Sim PTX:    immediate post dominator      @  PC=0x1140 (cutlass-test.1.sm_70.ptx:754) and.b32 %r389, %r563, 2;
GPGPU-Sim PTX: 30 (potential) branch divergence @  PC=0x1130 (cutlass-test.1.sm_70.ptx:748) bra.uni BB0_50;
GPGPU-Sim PTX:    immediate post dominator      @  PC=0x1138 (cutlass-test.1.sm_70.ptx:751) ld.global.u64 %rd1708, [%rd1611];
GPGPU-Sim PTX: 31 (potential) branch divergence @  PC=0x1150 (cutlass-test.1.sm_70.ptx:756) @%p74 bra BB0_53;
GPGPU-Sim PTX:    immediate post dominator      @  PC=0x1160 (cutlass-test.1.sm_70.ptx:761) mul.wide.s32 %rd1147, %r10, 8;
GPGPU-Sim PTX: 32 (potential) branch divergence @  PC=0x1180 (cutlass-test.1.sm_70.ptx:765) @%p75 bra BB0_55;
GPGPU-Sim PTX:    immediate post dominator      @  PC=0x1190 (cutlass-test.1.sm_70.ptx:770) and.b32 %r391, %r563, 8;
GPGPU-Sim PTX: 33 (potential) branch divergence @  PC=0x11a0 (cutlass-test.1.sm_70.ptx:772) @%p76 bra BB0_57;
GPGPU-Sim PTX:    immediate post dominator      @  PC=0x11b0 (cutlass-test.1.sm_70.ptx:777) add.s64 %rd1149, %rd12, %rd12;
GPGPU-Sim PTX: 34 (potential) branch divergence @  PC=0x11d8 (cutlass-test.1.sm_70.ptx:782) @%p77 bra BB0_59;
GPGPU-Sim PTX:    immediate post dominator      @  PC=0x11e8 (cutlass-test.1.sm_70.ptx:787) and.b32 %r393, %r563, 512;
GPGPU-Sim PTX: 35 (potential) branch divergence @  PC=0x11f8 (cutlass-test.1.sm_70.ptx:789) @%p78 bra BB0_61;
GPGPU-Sim PTX:    immediate post dominator      @  PC=0x1208 (cutlass-test.1.sm_70.ptx:794) add.s64 %rd1153, %rd1149, %rd12;
GPGPU-Sim PTX: 36 (potential) branch divergence @  PC=0x1230 (cutlass-test.1.sm_70.ptx:799) @%p79 bra BB0_63;
GPGPU-Sim PTX:    immediate post dominator      @  PC=0x1240 (cutlass-test.1.sm_70.ptx:804) and.b32 %r395, %r563, 2048;
GPGPU-Sim PTX: 37 (potential) branch divergence @  PC=0x1250 (cutlass-test.1.sm_70.ptx:806) @%p80 bra BB0_65;
GPGPU-Sim PTX:    immediate post dominator      @  PC=0x1260 (cutlass-test.1.sm_70.ptx:811) add.s64 %rd1159, %rd1153, %rd955;
GPGPU-Sim PTX: 38 (potential) branch divergence @  PC=0x1288 (cutlass-test.1.sm_70.ptx:816) @!%p81 bra BB0_67;
GPGPU-Sim PTX:    immediate post dominator      @  PC=0x12a0 (cutlass-test.1.sm_70.ptx:823) and.b32 %r397, %r562, 2;
GPGPU-Sim PTX: 39 (potential) branch divergence @  PC=0x1290 (cutlass-test.1.sm_70.ptx:817) bra.uni BB0_66;
GPGPU-Sim PTX:    immediate post dominator      @  PC=0x1298 (cutlass-test.1.sm_70.ptx:820) ld.global.u64 %rd1716, [%rd1602];
GPGPU-Sim PTX: 40 (potential) branch divergence @  PC=0x12b0 (cutlass-test.1.sm_70.ptx:825) @%p82 bra BB0_69;
GPGPU-Sim PTX:    immediate post dominator      @  PC=0x12c0 (cutlass-test.1.sm_70.ptx:830) mul.wide.s32 %rd1161, %r1, 8;
GPGPU-Sim PTX: 41 (potential) branch divergence @  PC=0x12e0 (cutlass-test.1.sm_70.ptx:834) @%p83 bra BB0_71;
GPGPU-Sim PTX:    immediate post dominator      @  PC=0x12f0 (cutlass-test.1.sm_70.ptx:839) and.b32 %r399, %r562, 8;
GPGPU-Sim PTX: 42 (potential) branch divergence @  PC=0x1300 (cutlass-test.1.sm_70.ptx:841) @%p84 bra BB0_73;
GPGPU-Sim PTX:    immediate post dominator      @  PC=0x1310 (cutlass-test.1.sm_70.ptx:846) add.s64 %rd1163, %rd37, %rd37;
GPGPU-Sim PTX: 43 (potential) branch divergence @  PC=0x1338 (cutlass-test.1.sm_70.ptx:851) @%p85 bra BB0_75;
GPGPU-Sim PTX:    immediate post dominator      @  PC=0x1348 (cutlass-test.1.sm_70.ptx:856) and.b32 %r401, %r562, 512;
GPGPU-Sim PTX: 44 (potential) branch divergence @  PC=0x1358 (cutlass-test.1.sm_70.ptx:858) @%p86 bra BB0_77;
GPGPU-Sim PTX:    immediate post dominator      @  PC=0x1368 (cutlass-test.1.sm_70.ptx:863) add.s64 %rd1167, %rd1163, %rd37;
GPGPU-Sim PTX: 45 (potential) branch divergence @  PC=0x1390 (cutlass-test.1.sm_70.ptx:868) @%p87 bra BB0_79;
GPGPU-Sim PTX:    immediate post dominator      @  PC=0x13a0 (cutlass-test.1.sm_70.ptx:873) and.b32 %r403, %r562, 2048;
GPGPU-Sim PTX: 46 (potential) branch divergence @  PC=0x13b0 (cutlass-test.1.sm_70.ptx:875) @%p88 bra BB0_81;
GPGPU-Sim PTX:    immediate post dominator      @  PC=0x13c0 (cutlass-test.1.sm_70.ptx:880) add.s64 %rd1173, %rd1167, %rd968;
GPGPU-Sim PTX: 47 (potential) branch divergence @  PC=0x2bb0 (cutlass-test.1.sm_70.ptx:1646) @%p93 bra BB0_47;
GPGPU-Sim PTX:    immediate post dominator      @  PC=0x2bb8 (cutlass-test.1.sm_70.ptx:1647) bra.uni BB0_82;
GPGPU-Sim PTX: 48 (potential) branch divergence @  PC=0x2bb8 (cutlass-test.1.sm_70.ptx:1647) bra.uni BB0_82;
GPGPU-Sim PTX:    immediate post dominator      @  PC=0x2db8 (cutlass-test.1.sm_70.ptx:1715) setp.lt.s32%p94, %r579, -7;
GPGPU-Sim PTX: 49 (potential) branch divergence @  PC=0x2dc0 (cutlass-test.1.sm_70.ptx:1716) @%p94 bra BB0_84;
GPGPU-Sim PTX:    immediate post dominator      @  PC=0x4668 (cutlass-test.1.sm_70.ptx:2509) mov.u32 %r552, %tid.x;
GPGPU-Sim PTX: 50 (potential) branch divergence @  PC=0x4660 (cutlass-test.1.sm_70.ptx:2506) @%p95 bra BB0_83;
GPGPU-Sim PTX:    immediate post dominator      @  PC=0x4668 (cutlass-test.1.sm_70.ptx:2509) mov.u32 %r552, %tid.x;
GPGPU-Sim PTX: 51 (potential) branch divergence @  PC=0x4720 (cutlass-test.1.sm_70.ptx:2532) @%p96 bra BB0_357;
GPGPU-Sim PTX:    immediate post dominator      @  PC=0x8938 (cutlass-test.1.sm_70.ptx:5785) ret;
GPGPU-Sim PTX: 52 (potential) branch divergence @  PC=0x4728 (cutlass-test.1.sm_70.ptx:2533) bra.uni BB0_85;
GPGPU-Sim PTX:    immediate post dominator      @  PC=0x5fa0 (cutlass-test.1.sm_70.ptx:3758) setp.lt.s32%p97, %r85, 528;
GPGPU-Sim PTX: 53 (potential) branch divergence @  PC=0x4738 (cutlass-test.1.sm_70.ptx:2537) @%p489 bra BB0_359;
GPGPU-Sim PTX:    immediate post dominator      @  PC=0x47b0 (cutlass-test.1.sm_70.ptx:2575) mov.u32 %r558, %tid.x;
GPGPU-Sim PTX: 54 (potential) branch divergence @  PC=0x47d0 (cutlass-test.1.sm_70.ptx:2579) @%p490 bra BB0_361;
GPGPU-Sim PTX:    immediate post dominator      @  PC=0x4848 (cutlass-test.1.sm_70.ptx:2617) mov.u32 %r559, _ZN7cutlass4gemm11gemm_kernelINS0_4GemmINS0_11DgemmTraitsILNS_12MatrixLayout4KindE1ELS5_0ENS_5ShapeILi8ELi64ELi64ELi1EEENS0_13LinearScalingIdNS0_19FragmentMultiplyAddIdEEEENS6_ILi8ELi8ELi8ELi1EEELi1ELi1EiNS0_11DgemmConfigIS7_SC_Li1ELi1EEENS0_28SimplifiedGemmEpilogueTraitsISE_SB_iNS0_24GemmEpilogueTraitsHelperISE_SB_iEEEEEEEEEEvNT_6ParamsE$__cuda_local_var_31507_57_non_const_shared_storage;
GPGPU-Sim PTX: 55 (potential) branch divergence @  PC=0x48f8 (cutlass-test.1.sm_70.ptx:2639) @!%p492 bra BB0_363;
GPGPU-Sim PTX:    immediate post dominator      @  PC=0x4920 (cutlass-test.1.sm_70.ptx:2648) setp.lt.s32%p493, %r82, %r205;
GPGPU-Sim PTX: 56 (potential) branch divergence @  PC=0x4900 (cutlass-test.1.sm_70.ptx:2640) bra.uni BB0_362;
GPGPU-Sim PTX:    immediate post dominator      @  PC=0x4908 (cutlass-test.1.sm_70.ptx:2643) ld.shared.f64 %fd2003, [%r157];
GPGPU-Sim PTX: 57 (potential) branch divergence @  PC=0x4968 (cutlass-test.1.sm_70.ptx:2657) @!%p495 bra BB0_365;
GPGPU-Sim PTX:    immediate post dominator      @  PC=0x4990 (cutlass-test.1.sm_70.ptx:2666) cvt.s64.s32%rd867, %r199;
GPGPU-Sim PTX: 58 (potential) branch divergence @  PC=0x4970 (cutlass-test.1.sm_70.ptx:2658) bra.uni BB0_364;
GPGPU-Sim PTX:    immediate post dominator      @  PC=0x4978 (cutlass-test.1.sm_70.ptx:2661) shl.b64 %rd1433, %rd611, 3;
GPGPU-Sim PTX: 59 (potential) branch divergence @  PC=0x49c8 (cutlass-test.1.sm_70.ptx:2673) @!%p498 bra BB0_367;
GPGPU-Sim PTX:    immediate post dominator      @  PC=0x49e0 (cutlass-test.1.sm_70.ptx:2680) and.pred %p501, %p493, %p497;
GPGPU-Sim PTX: 60 (potential) branch divergence @  PC=0x49d0 (cutlass-test.1.sm_70.ptx:2674) bra.uni BB0_366;
GPGPU-Sim PTX:    immediate post dominator      @  PC=0x49d8 (cutlass-test.1.sm_70.ptx:2677) st.global.f64 [%rd869], %fd239;
GPGPU-Sim PTX: 61 (potential) branch divergence @  PC=0x49e8 (cutlass-test.1.sm_70.ptx:2681) @!%p501 bra BB0_369;
GPGPU-Sim PTX:    immediate post dominator      @  PC=0x4a08 (cutlass-test.1.sm_70.ptx:2689) add.s64 %rd870, %rd868, %rd867;
GPGPU-Sim PTX: 62 (potential) branch divergence @  PC=0x49f0 (cutlass-test.1.sm_70.ptx:2682) bra.uni BB0_368;
GPGPU-Sim PTX:    immediate post dominator      @  PC=0x49f8 (cutlass-test.1.sm_70.ptx:2685) add.s64 %rd1437, %rd1435, %rd4;
GPGPU-Sim PTX: 63 (potential) branch divergence @  PC=0x4a38 (cutlass-test.1.sm_70.ptx:2695) @!%p504 bra BB0_371;
GPGPU-Sim PTX:    immediate post dominator      @  PC=0x4a50 (cutlass-test.1.sm_70.ptx:2702) and.pred %p507, %p493, %p503;
GPGPU-Sim PTX: 64 (potential) branch divergence @  PC=0x4a40 (cutlass-test.1.sm_70.ptx:2696) bra.uni BB0_370;
GPGPU-Sim PTX:    immediate post dominator      @  PC=0x4a48 (cutlass-test.1.sm_70.ptx:2699) st.global.f64 [%rd871], %fd237;
GPGPU-Sim PTX: 65 (potential) branch divergence @  PC=0x4a58 (cutlass-test.1.sm_70.ptx:2703) @!%p507 bra BB0_373;
GPGPU-Sim PTX:    immediate post dominator      @  PC=0x4a78 (cutlass-test.1.sm_70.ptx:2711) add.s64 %rd872, %rd870, %rd867;
GPGPU-Sim PTX: 66 (potential) branch divergence @  PC=0x4a60 (cutlass-test.1.sm_70.ptx:2704) bra.uni BB0_372;
GPGPU-Sim PTX:    immediate post dominator      @  PC=0x4a68 (cutlass-test.1.sm_70.ptx:2707) add.s64 %rd1440, %rd1438, %rd4;
GPGPU-Sim PTX: 67 (potential) branch divergence @  PC=0x4aa8 (cutlass-test.1.sm_70.ptx:2717) @!%p510 bra BB0_375;
GPGPU-Sim PTX:    immediate post dominator      @  PC=0x4ac0 (cutlass-test.1.sm_70.ptx:2724) and.pred %p513, %p493, %p509;
GPGPU-Sim PTX: 68 (potential) branch divergence @  PC=0x4ab0 (cutlass-test.1.sm_70.ptx:2718) bra.uni BB0_374;
GPGPU-Sim PTX:    immediate post dominator      @  PC=0x4ab8 (cutlass-test.1.sm_70.ptx:2721) st.global.f64 [%rd873], %fd235;
GPGPU-Sim PTX: 69 (potential) branch divergence @  PC=0x4ac8 (cutlass-test.1.sm_70.ptx:2725) @!%p513 bra BB0_377;
GPGPU-Sim PTX:    immediate post dominator      @  PC=0x4ae8 (cutlass-test.1.sm_70.ptx:2733) cvt.s64.s32%rd874, %r198;
GPGPU-Sim PTX: 70 (potential) branch divergence @  PC=0x4ad0 (cutlass-test.1.sm_70.ptx:2726) bra.uni BB0_376;
GPGPU-Sim PTX:    immediate post dominator      @  PC=0x4ad8 (cutlass-test.1.sm_70.ptx:2729) add.s64 %rd1443, %rd1441, %rd4;
GPGPU-Sim PTX: 71 (potential) branch divergence @  PC=0x4b78 (cutlass-test.1.sm_70.ptx:2751) @!%p515 bra BB0_379;
GPGPU-Sim PTX:    immediate post dominator      @  PC=0x4bb0 (cutlass-test.1.sm_70.ptx:2762) and.pred %p518, %p493, %p514;
GPGPU-Sim PTX: 72 (potential) branch divergence @  PC=0x4b80 (cutlass-test.1.sm_70.ptx:2752) bra.uni BB0_378;
GPGPU-Sim PTX:    immediate post dominator      @  PC=0x4b88 (cutlass-test.1.sm_70.ptx:2755) ld.shared.f64 %fd2005, [%r157];
GPGPU-Sim PTX: 73 (potential) branch divergence @  PC=0x4bf0 (cutlass-test.1.sm_70.ptx:2770) @!%p518 bra BB0_381;
GPGPU-Sim PTX:    immediate post dominator      @  PC=0x4c18 (cutlass-test.1.sm_70.ptx:2779) add.s64 %rd876, %rd875, %rd867;
GPGPU-Sim PTX: 74 (potential) branch divergence @  PC=0x4bf8 (cutlass-test.1.sm_70.ptx:2771) bra.uni BB0_380;
GPGPU-Sim PTX:    immediate post dominator      @  PC=0x4c00 (cutlass-test.1.sm_70.ptx:2774) shl.b64 %rd1446, %rd875, 3;
GPGPU-Sim PTX: 75 (potential) branch divergence @  PC=0x4c48 (cutlass-test.1.sm_70.ptx:2785) @!%p521 bra BB0_383;
GPGPU-Sim PTX:    immediate post dominator      @  PC=0x4c60 (cutlass-test.1.sm_70.ptx:2792) and.pred %p524, %p493, %p520;
GPGPU-Sim PTX: 76 (potential) branch divergence @  PC=0x4c50 (cutlass-test.1.sm_70.ptx:2786) bra.uni BB0_382;
GPGPU-Sim PTX:    immediate post dominator      @  PC=0x4c58 (cutlass-test.1.sm_70.ptx:2789) st.global.f64 [%rd877], %fd253;
GPGPU-Sim PTX: 77 (potential) branch divergence @  PC=0x4c68 (cutlass-test.1.sm_70.ptx:2793) @!%p524 bra BB0_385;
GPGPU-Sim PTX:    immediate post dominator      @  PC=0x4c88 (cutlass-test.1.sm_70.ptx:2801) add.s64 %rd878, %rd876, %rd867;
GPGPU-Sim PTX: 78 (potential) branch divergence @  PC=0x4c70 (cutlass-test.1.sm_70.ptx:2794) bra.uni BB0_384;
GPGPU-Sim PTX:    immediate post dominator      @  PC=0x4c78 (cutlass-test.1.sm_70.ptx:2797) add.s64 %rd1450, %rd1448, %rd4;
GPGPU-Sim PTX: 79 (potential) branch divergence @  PC=0x4cb8 (cutlass-test.1.sm_70.ptx:2807) @!%p527 bra BB0_387;
GPGPU-Sim PTX:    immediate post dominator      @  PC=0x4cd0 (cutlass-test.1.sm_70.ptx:2814) and.pred %p530, %p493, %p526;
GPGPU-Sim PTX: 80 (potential) branch divergence @  PC=0x4cc0 (cutlass-test.1.sm_70.ptx:2808) bra.uni BB0_386;
GPGPU-Sim PTX:    immediate post dominator      @  PC=0x4cc8 (cutlass-test.1.sm_70.ptx:2811) st.global.f64 [%rd879], %fd251;
GPGPU-Sim PTX: 81 (potential) branch divergence @  PC=0x4cd8 (cutlass-test.1.sm_70.ptx:2815) @!%p530 bra BB0_389;
GPGPU-Sim PTX:    immediate post dominator      @  PC=0x4cf8 (cutlass-test.1.sm_70.ptx:2823) add.s64 %rd880, %rd878, %rd867;
GPGPU-Sim PTX: 82 (potential) branch divergence @  PC=0x4ce0 (cutlass-test.1.sm_70.ptx:2816) bra.uni BB0_388;
GPGPU-Sim PTX:    immediate post dominator      @  PC=0x4ce8 (cutlass-test.1.sm_70.ptx:2819) add.s64 %rd1453, %rd1451, %rd4;
GPGPU-Sim PTX: 83 (potential) branch divergence @  PC=0x4d28 (cutlass-test.1.sm_70.ptx:2829) @!%p533 bra BB0_391;
GPGPU-Sim PTX:    immediate post dominator      @  PC=0x4d40 (cutlass-test.1.sm_70.ptx:2836) and.pred %p536, %p493, %p532;
GPGPU-Sim PTX: 84 (potential) branch divergence @  PC=0x4d30 (cutlass-test.1.sm_70.ptx:2830) bra.uni BB0_390;
GPGPU-Sim PTX:    immediate post dominator      @  PC=0x4d38 (cutlass-test.1.sm_70.ptx:2833) st.global.f64 [%rd881], %fd249;
GPGPU-Sim PTX: 85 (potential) branch divergence @  PC=0x4d48 (cutlass-test.1.sm_70.ptx:2837) @!%p536 bra BB0_393;
GPGPU-Sim PTX:    immediate post dominator      @  PC=0x4d68 (cutlass-test.1.sm_70.ptx:2845) ld.param.u32 %r561, [_ZN7cutlass4gemm11gemm_kernelINS0_4GemmINS0_11DgemmTraitsILNS_12MatrixLayout4KindE1ELS5_0ENS_5ShapeILi8ELi64ELi64ELi1EEENS0_13LinearScalingIdNS0_19FragmentMultiplyAddIdEEEENS6_ILi8ELi8ELi8ELi1EEELi1ELi1EiNS0_11DgemmConfigIS7_SC_Li1ELi1EEENS0_28SimplifiedGemmEpilogueTraitsISE_SB_iNS0_24GemmEpilogueTraitsHelperISE_SB_iEEEEEEEEEEvNT_6ParamsE_param_0+272];
GPGPU-Sim PTX: 86 (potential) branch divergence @  PC=0x4d50 (cutlass-test.1.sm_70.ptx:2838) bra.uni BB0_392;
GPGPU-Sim PTX:    immediate post dominator      @  PC=0x4d58 (cutlass-test.1.sm_70.ptx:2841) add.s64 %rd1456, %rd1454, %rd4;
GPGPU-Sim PTX: 87 (potential) branch divergence @  PC=0x4dc0 (cutlass-test.1.sm_70.ptx:2856) @%p489 bra BB0_395;
GPGPU-Sim PTX:    immediate post dominator      @  PC=0x4e38 (cutlass-test.1.sm_70.ptx:2894) @%p490 bra BB0_397;
GPGPU-Sim PTX: 88 (potential) branch divergence @  PC=0x4e38 (cutlass-test.1.sm_70.ptx:2894) @%p490 bra BB0_397;
GPGPU-Sim PTX:    immediate post dominator      @  PC=0x4eb0 (cutlass-test.1.sm_70.ptx:2932) bar.sync 0;
GPGPU-Sim PTX: 89 (potential) branch divergence @  PC=0x4f28 (cutlass-test.1.sm_70.ptx:2947) @!%p540 bra BB0_399;
GPGPU-Sim PTX:    immediate post dominator      @  PC=0x4f60 (cutlass-test.1.sm_70.ptx:2958) and.pred %p543, %p493, %p539;
GPGPU-Sim PTX: 90 (potential) branch divergence @  PC=0x4f30 (cutlass-test.1.sm_70.ptx:2948) bra.uni BB0_398;
GPGPU-Sim PTX:    immediate post dominator      @  PC=0x4f38 (cutlass-test.1.sm_70.ptx:2951) ld.shared.f64 %fd2007, [%r157];
GPGPU-Sim PTX: 91 (potential) branch divergence @  PC=0x4fa0 (cutlass-test.1.sm_70.ptx:2966) @!%p543 bra BB0_401;
GPGPU-Sim PTX:    immediate post dominator      @  PC=0x4fc8 (cutlass-test.1.sm_70.ptx:2975) add.s64 %rd883, %rd882, %rd867;
GPGPU-Sim PTX: 92 (potential) branch divergence @  PC=0x4fa8 (cutlass-test.1.sm_70.ptx:2967) bra.uni BB0_400;
GPGPU-Sim PTX:    immediate post dominator      @  PC=0x4fb0 (cutlass-test.1.sm_70.ptx:2970) shl.b64 %rd1473, %rd882, 3;
GPGPU-Sim PTX: 93 (potential) branch divergence @  PC=0x4ff8 (cutlass-test.1.sm_70.ptx:2981) @!%p546 bra BB0_403;
GPGPU-Sim PTX:    immediate post dominator      @  PC=0x5010 (cutlass-test.1.sm_70.ptx:2988) and.pred %p549, %p493, %p545;
GPGPU-Sim PTX: 94 (potential) branch divergence @  PC=0x5000 (cutlass-test.1.sm_70.ptx:2982) bra.uni BB0_402;
GPGPU-Sim PTX:    immediate post dominator      @  PC=0x5008 (cutlass-test.1.sm_70.ptx:2985) st.global.f64 [%rd884], %fd267;
GPGPU-Sim PTX: 95 (potential) branch divergence @  PC=0x5018 (cutlass-test.1.sm_70.ptx:2989) @!%p549 bra BB0_405;
GPGPU-Sim PTX:    immediate post dominator      @  PC=0x5038 (cutlass-test.1.sm_70.ptx:2997) add.s64 %rd885, %rd883, %rd867;
GPGPU-Sim PTX: 96 (potential) branch divergence @  PC=0x5020 (cutlass-test.1.sm_70.ptx:2990) bra.uni BB0_404;
GPGPU-Sim PTX:    immediate post dominator      @  PC=0x5028 (cutlass-test.1.sm_70.ptx:2993) add.s64 %rd1477, %rd1475, %rd4;
GPGPU-Sim PTX: 97 (potential) branch divergence @  PC=0x5068 (cutlass-test.1.sm_70.ptx:3003) @!%p552 bra BB0_407;
GPGPU-Sim PTX:    immediate post dominator      @  PC=0x5080 (cutlass-test.1.sm_70.ptx:3010) and.pred %p555, %p493, %p551;
GPGPU-Sim PTX: 98 (potential) branch divergence @  PC=0x5070 (cutlass-test.1.sm_70.ptx:3004) bra.uni BB0_406;
GPGPU-Sim PTX:    immediate post dominator      @  PC=0x5078 (cutlass-test.1.sm_70.ptx:3007) st.global.f64 [%rd886], %fd265;
GPGPU-Sim PTX: 99 (potential) branch divergence @  PC=0x5088 (cutlass-test.1.sm_70.ptx:3011) @!%p555 bra BB0_409;
GPGPU-Sim PTX:    immediate post dominator      @  PC=0x50a8 (cutlass-test.1.sm_70.ptx:3019) add.s64 %rd887, %rd885, %rd867;
GPGPU-Sim PTX: 100 (potential) branch divergence @  PC=0x5090 (cutlass-test.1.sm_70.ptx:3012) bra.uni BB0_408;
GPGPU-Sim PTX:    immediate post dominator      @  PC=0x5098 (cutlass-test.1.sm_70.ptx:3015) add.s64 %rd1480, %rd1478, %rd4;
GPGPU-Sim PTX: 101 (potential) branch divergence @  PC=0x50d8 (cutlass-test.1.sm_70.ptx:3025) @!%p558 bra BB0_411;
GPGPU-Sim PTX:    immediate post dominator      @  PC=0x50f0 (cutlass-test.1.sm_70.ptx:3032) and.pred %p561, %p493, %p557;
GPGPU-Sim PTX: 102 (potential) branch divergence @  PC=0x50e0 (cutlass-test.1.sm_70.ptx:3026) bra.uni BB0_410;
GPGPU-Sim PTX:    immediate post dominator      @  PC=0x50e8 (cutlass-test.1.sm_70.ptx:3029) st.global.f64 [%rd888], %fd263;
GPGPU-Sim PTX: 103 (potential) branch divergence @  PC=0x50f8 (cutlass-test.1.sm_70.ptx:3033) @!%p561 bra BB0_413;
GPGPU-Sim PTX:    immediate post dominator      @  PC=0x5118 (cutlass-test.1.sm_70.ptx:3041) add.s64 %rd889, %rd887, %rd874;
[...]
bwutil = 0.001066 
total_CMD = 75062 
util_bw = 80 
Wasted_Col = 92 
Wasted_Row = 0 
Idle = 74890 

BW Util Bottlenecks: 
RCDc_limit = 32 
RCDWRc_limit = 0 
WTRc_limit = 0 
RTWc_limit = 0 
CCDLc_limit = 60 
rwq = 0 
CCDLc_limit_alone = 60 
WTRc_limit_alone = 0 
RTWc_limit_alone = 0 

Commands details: 
total_CMD = 75062 
n_nop = 75020 
Read = 40 
Write = 0 
L2_Alloc = 0 
L2_WB = 0 
n_act = 2 
n_pre = 0 
n_ref = 0 
n_req = 40 
total_req = 40 

Dual Bus Interface Util: 
issued_total_row = 2 
issued_total_col = 40 
Row_Bus_Util =  0.000027 
CoL_Bus_Util = 0.000533 
Either_Row_CoL_Bus_Util = 0.000560 
Issued_on_Two_Bus_Simul_Util = 0.000000 
issued_two_Eff = 0.000000 
queue_avg = 0.002025 


dram_util_bins: 0 0 0 0 0 0 0 0 0 0
dram_eff_bins: 0 0 0 0 0 0 0 0 0 0
mrqq: max=3 avg=0.00202499
Memory Partition 6: 
Cache L2_bank_012:
MSHR contents

Cache L2_bank_013:
MSHR contents

In Dram Latency Queue (total = 0): 
DRAM[6]: 16 bks, busW=4 BL=8 CL=16, tRRD=8 tCCD=2, tRCD=16 tRAS=37 tRP=16 tRC=52
n_cmd=75062 n_nop=75020 n_act=2 n_pre=0 n_ref_event=0 n_req=40 n_rd=40 n_rd_L2_A=0 n_write=0 n_wr_bk=0 bw_util=0.001066
n_activity=312 dram_eff=0.2564
bk0: 20a 75006i bk1: 20a 75004i bk2: 0a 75061i bk3: 0a 75061i bk4: 0a 75061i bk5: 0a 75062i bk6: 0a 75062i bk7: 0a 75062i bk8: 0a 75062i bk9: 0a 75062i bk10: 0a 75062i bk11: 0a 75062i bk12: 0a 75062i bk13: 0a 75062i bk14: 0a 75062i bk15: 0a 75063i 

------------------------------------------------------------------------

Row_Buffer_Locality = 0.950000
Row_Buffer_Locality_read = 0.950000
Row_Buffer_Locality_write = -nan
Bank_Level_Parallism = 1.000000
Bank_Level_Parallism_Col = 1.000000
Bank_Level_Parallism_Ready = 1.000000
write_to_read_ratio_blp_rw_average = 0.000000
GrpLevelPara = 1.000000 

BW Util details:
bwutil = 0.001066 
total_CMD = 75062 
util_bw = 80 
Wasted_Col = 92 
Wasted_Row = 0 
Idle = 74890 

BW Util Bottlenecks: 
RCDc_limit = 32 
RCDWRc_limit = 0 
WTRc_limit = 0 
RTWc_limit = 0 
CCDLc_limit = 60 
rwq = 0 
CCDLc_limit_alone = 60 
WTRc_limit_alone = 0 
RTWc_limit_alone = 0 

Commands details: 
total_CMD = 75062 
n_nop = 75020 
Read = 40 
Write = 0 
L2_Alloc = 0 
L2_WB = 0 
n_act = 2 
n_pre = 0 
n_ref = 0 
n_req = 40 
total_req = 40 

Dual Bus Interface Util: 
issued_total_row = 2 
issued_total_col = 40 
Row_Bus_Util =  0.000027 
CoL_Bus_Util = 0.000533 
Either_Row_CoL_Bus_Util = 0.000560 
Issued_on_Two_Bus_Simul_Util = 0.000000 
issued_two_Eff = 0.000000 
queue_avg = 0.001918 


dram_util_bins: 0 0 0 0 0 0 0 0 0 0
dram_eff_bins: 0 0 0 0 0 0 0 0 0 0
mrqq: max=3 avg=0.00191841
Memory Partition 7: 
Cache L2_bank_014:
MSHR contents

Cache L2_bank_015:
MSHR contents

In Dram Latency Queue (total = 0): 
DRAM[7]: 16 bks, busW=4 BL=8 CL=16, tRRD=8 tCCD=2, tRCD=16 tRAS=37 tRP=16 tRC=52
n_cmd=75062 n_nop=75016 n_act=2 n_pre=0 n_ref_event=0 n_req=44 n_rd=44 n_rd_L2_A=0 n_write=0 n_wr_bk=0 bw_util=0.001172
n_activity=338 dram_eff=0.2604
bk0: 20a 75006i bk1: 24a 74995i bk2: 0a 75061i bk3: 0a 75061i bk4: 0a 75061i bk5: 0a 75062i bk6: 0a 75062i bk7: 0a 75062i bk8: 0a 75062i bk9: 0a 75062i bk10: 0a 75062i bk11: 0a 75062i bk12: 0a 75062i bk13: 0a 75062i bk14: 0a 75062i bk15: 0a 75063i 

------------------------------------------------------------------------

Row_Buffer_Locality = 0.954545
Row_Buffer_Locality_read = 0.954545
Row_Buffer_Locality_write = -nan
Bank_Level_Parallism = 1.000000
Bank_Level_Parallism_Col = 1.000000
Bank_Level_Parallism_Ready = 1.000000
write_to_read_ratio_blp_rw_average = 0.000000
GrpLevelPara = 1.000000 

BW Util details:
bwutil = 0.001172 
total_CMD = 75062 
util_bw = 88 
Wasted_Col = 98 
Wasted_Row = 0 
Idle = 74876 

BW Util Bottlenecks: 
RCDc_limit = 32 
RCDWRc_limit = 0 
WTRc_limit = 0 
RTWc_limit = 0 
CCDLc_limit = 66 
rwq = 0 
CCDLc_limit_alone = 66 
WTRc_limit_alone = 0 
RTWc_limit_alone = 0 

Commands details: 
total_CMD = 75062 
n_nop = 75016 
Read = 44 
Write = 0 
L2_Alloc = 0 
L2_WB = 0 
n_act = 2 
n_pre = 0 
n_ref = 0 
n_req = 44 
total_req = 44 

Dual Bus Interface Util: 
issued_total_row = 2 
issued_total_col = 44 
Row_Bus_Util =  0.000027 
CoL_Bus_Util = 0.000586 
Either_Row_CoL_Bus_Util = 0.000613 
Issued_on_Two_Bus_Simul_Util = 0.000000 
issued_two_Eff = 0.000000 
queue_avg = 0.001972 


dram_util_bins: 0 0 0 0 0 0 0 0 0 0
dram_eff_bins: 0 0 0 0 0 0 0 0 0 0
mrqq: max=3 avg=0.0019717
Memory Partition 8: 
Cache L2_bank_016:
MSHR contents

Cache L2_bank_017:
MSHR contents

In Dram Latency Queue (total = 0): 
DRAM[8]: 16 bks, busW=4 BL=8 CL=16, tRRD=8 tCCD=2, tRCD=16 tRAS=37 tRP=16 tRC=52
n_cmd=75062 n_nop=75012 n_act=2 n_pre=0 n_ref_event=0 n_req=48 n_rd=48 n_rd_L2_A=0 n_write=0 n_wr_bk=0 bw_util=0.001279
n_activity=364 dram_eff=0.2637
bk0: 24a 74997i bk1: 24a 74996i bk2: 0a 75061i bk3: 0a 75061i bk4: 0a 75061i bk5: 0a 75062i bk6: 0a 75062i bk7: 0a 75062i bk8: 0a 75062i bk9: 0a 75062i bk10: 0a 75062i bk11: 0a 75062i bk12: 0a 75062i bk13: 0a 75062i bk14: 0a 75062i bk15: 0a 75063i 

------------------------------------------------------------------------

Row_Buffer_Locality = 0.958333
Row_Buffer_Locality_read = 0.958333
Row_Buffer_Locality_write = -nan
Bank_Level_Parallism = 1.000000
Bank_Level_Parallism_Col = 1.000000
Bank_Level_Parallism_Ready = 1.000000
write_to_read_ratio_blp_rw_average = 0.000000
GrpLevelPara = 1.000000 

BW Util details:
bwutil = 0.001279 
total_CMD = 75062 
util_bw = 96 
Wasted_Col = 104 
Wasted_Row = 0 
Idle = 74862 

BW Util Bottlenecks: 
RCDc_limit = 32 
RCDWRc_limit = 0 
WTRc_limit = 0 
RTWc_limit = 0 
CCDLc_limit = 72 
rwq = 0 
CCDLc_limit_alone = 72 
WTRc_limit_alone = 0 
RTWc_limit_alone = 0 

Commands details: 
total_CMD = 75062 
n_nop = 75012 
Read = 48 
Write = 0 
L2_Alloc = 0 
L2_WB = 0 
n_act = 2 
n_pre = 0 
n_ref = 0 
n_req = 48 
total_req = 48 

Dual Bus Interface Util: 
issued_total_row = 2 
issued_total_col = 48 
Row_Bus_Util =  0.000027 
CoL_Bus_Util = 0.000639 
Either_Row_CoL_Bus_Util = 0.000666 
Issued_on_Two_Bus_Simul_Util = 0.000000 
issued_two_Eff = 0.000000 
queue_avg = 0.002092 


dram_util_bins: 0 0 0 0 0 0 0 0 0 0
dram_eff_bins: 0 0 0 0 0 0 0 0 0 0
mrqq: max=3 avg=0.0020916
Memory Partition 9: 
Cache L2_bank_018:
MSHR contents

Cache L2_bank_019:
MSHR contents

In Dram Latency Queue (total = 0): 
DRAM[9]: 16 bks, busW=4 BL=8 CL=16, tRRD=8 tCCD=2, tRCD=16 tRAS=37 tRP=16 tRC=52
n_cmd=75062 n_nop=75012 n_act=2 n_pre=0 n_ref_event=0 n_req=48 n_rd=48 n_rd_L2_A=0 n_write=0 n_wr_bk=0 bw_util=0.001279
n_activity=364 dram_eff=0.2637
bk0: 24a 74997i bk1: 24a 74997i bk2: 0a 75061i bk3: 0a 75061i bk4: 0a 75061i bk5: 0a 75062i bk6: 0a 75062i bk7: 0a 75062i bk8: 0a 75062i bk9: 0a 75062i bk10: 0a 75062i bk11: 0a 75062i bk12: 0a 75062i bk13: 0a 75062i bk14: 0a 75062i bk15: 0a 75063i 

------------------------------------------------------------------------

Row_Buffer_Locality = 0.958333
Row_Buffer_Locality_read = 0.958333
Row_Buffer_Locality_write = -nan
Bank_Level_Parallism = 1.000000
Bank_Level_Parallism_Col = 1.000000
Bank_Level_Parallism_Ready = 1.000000
write_to_read_ratio_blp_rw_average = 0.000000
GrpLevelPara = 1.000000 

BW Util details:
bwutil = 0.001279 
total_CMD = 75062 
util_bw = 96 
Wasted_Col = 104 
Wasted_Row = 0 
Idle = 74862 

BW Util Bottlenecks: 
RCDc_limit = 32 
RCDWRc_limit = 0 
WTRc_limit = 0 
RTWc_limit = 0 
CCDLc_limit = 72 
rwq = 0 
CCDLc_limit_alone = 72 
WTRc_limit_alone = 0 
RTWc_limit_alone = 0 

Commands details: 
total_CMD = 75062 
n_nop = 75012 
Read = 48 
Write = 0 
L2_Alloc = 0 
L2_WB = 0 
n_act = 2 
n_pre = 0 
n_ref = 0 
n_req = 48 
total_req = 48 

Dual Bus Interface Util: 
issued_total_row = 2 
issued_total_col = 48 
Row_Bus_Util =  0.000027 
CoL_Bus_Util = 0.000639 
Either_Row_CoL_Bus_Util = 0.000666 
Issued_on_Two_Bus_Simul_Util = 0.000000 
issued_two_Eff = 0.000000 
queue_avg = 0.002052 


dram_util_bins: 0 0 0 0 0 0 0 0 0 0
dram_eff_bins: 0 0 0 0 0 0 0 0 0 0
mrqq: max=3 avg=0.00205164
Memory Partition 10: 
Cache L2_bank_020:
MSHR contents

Cache L2_bank_021:
MSHR contents

In Dram Latency Queue (total = 0): 
DRAM[10]: 16 bks, busW=4 BL=8 CL=16, tRRD=8 tCCD=2, tRCD=16 tRAS=37 tRP=16 tRC=52
n_cmd=75062 n_nop=75012 n_act=2 n_pre=0 n_ref_event=0 n_req=48 n_rd=48 n_rd_L2_A=0 n_write=0 n_wr_bk=0 bw_util=0.001279
n_activity=364 dram_eff=0.2637
bk0: 24a 74996i bk1: 24a 74995i bk2: 0a 75061i bk3: 0a 75061i bk4: 0a 75061i bk5: 0a 75062i bk6: 0a 75062i bk7: 0a 75062i bk8: 0a 75062i bk9: 0a 75062i bk10: 0a 75062i bk11: 0a 75062i bk12: 0a 75062i bk13: 0a 75062i bk14: 0a 75062i bk15: 0a 75063i 

------------------------------------------------------------------------

Row_Buffer_Locality = 0.958333
Row_Buffer_Locality_read = 0.958333
Row_Buffer_Locality_write = -nan
Bank_Level_Parallism = 1.000000
Bank_Level_Parallism_Col = 1.000000
Bank_Level_Parallism_Ready = 1.000000
write_to_read_ratio_blp_rw_average = 0.000000
GrpLevelPara = 1.000000 

BW Util details:
bwutil = 0.001279 
total_CMD = 75062 
util_bw = 96 
Wasted_Col = 104 
Wasted_Row = 0 
Idle = 74862 

BW Util Bottlenecks: 
RCDc_limit = 32 
RCDWRc_limit = 0 
WTRc_limit = 0 
RTWc_limit = 0 
CCDLc_limit = 72 
rwq = 0 
CCDLc_limit_alone = 72 
WTRc_limit_alone = 0 
RTWc_limit_alone = 0 

Commands details: 
total_CMD = 75062 
n_nop = 75012 
Read = 48 
Write = 0 
L2_Alloc = 0 
L2_WB = 0 
n_act = 2 
n_pre = 0 
n_ref = 0 
n_req = 48 
total_req = 48 

Dual Bus Interface Util: 
issued_total_row = 2 
issued_total_col = 48 
Row_Bus_Util =  0.000027 
CoL_Bus_Util = 0.000639 
Either_Row_CoL_Bus_Util = 0.000666 
Issued_on_Two_Bus_Simul_Util = 0.000000 
issued_two_Eff = 0.000000 
queue_avg = 0.002158 


dram_util_bins: 0 0 0 0 0 0 0 0 0 0
dram_eff_bins: 0 0 0 0 0 0 0 0 0 0
mrqq: max=3 avg=0.00215822
Memory Partition 11: 
Cache L2_bank_022:
MSHR contents

Cache L2_bank_023:
MSHR contents

In Dram Latency Queue (total = 0): 
DRAM[11]: 16 bks, busW=4 BL=8 CL=16, tRRD=8 tCCD=2, tRCD=16 tRAS=37 tRP=16 tRC=52
n_cmd=75062 n_nop=75012 n_act=2 n_pre=0 n_ref_event=0 n_req=48 n_rd=48 n_rd_L2_A=0 n_write=0 n_wr_bk=0 bw_util=0.001279
n_activity=364 dram_eff=0.2637
bk0: 24a 74998i bk1: 24a 74995i bk2: 0a 75061i bk3: 0a 75061i bk4: 0a 75061i bk5: 0a 75062i bk6: 0a 75062i bk7: 0a 75062i bk8: 0a 75062i bk9: 0a 75062i bk10: 0a 75062i bk11: 0a 75062i bk12: 0a 75062i bk13: 0a 75062i bk14: 0a 75062i bk15: 0a 75063i 

------------------------------------------------------------------------

Row_Buffer_Locality = 0.958333
Row_Buffer_Locality_read = 0.958333
Row_Buffer_Locality_write = -nan
Bank_Level_Parallism = 1.000000
Bank_Level_Parallism_Col = 1.000000
Bank_Level_Parallism_Ready = 1.000000
write_to_read_ratio_blp_rw_average = 0.000000
GrpLevelPara = 1.000000 

BW Util details:
bwutil = 0.001279 
total_CMD = 75062 
util_bw = 96 
Wasted_Col = 104 
Wasted_Row = 0 
Idle = 74862 

BW Util Bottlenecks: 
RCDc_limit = 32 
RCDWRc_limit = 0 
WTRc_limit = 0 
RTWc_limit = 0 
CCDLc_limit = 72 
rwq = 0 
CCDLc_limit_alone = 72 
WTRc_limit_alone = 0 
RTWc_limit_alone = 0 

Commands details: 
total_CMD = 75062 
n_nop = 75012 
Read = 48 
Write = 0 
L2_Alloc = 0 
L2_WB = 0 
n_act = 2 
n_pre = 0 
n_ref = 0 
n_req = 48 
total_req = 48 

Dual Bus Interface Util: 
issued_total_row = 2 
issued_total_col = 48 
Row_Bus_Util =  0.000027 
CoL_Bus_Util = 0.000639 
Either_Row_CoL_Bus_Util = 0.000666 
Issued_on_Two_Bus_Simul_Util = 0.000000 
issued_two_Eff = 0.000000 
queue_avg = 0.002145 


dram_util_bins: 0 0 0 0 0 0 0 0 0 0
dram_eff_bins: 0 0 0 0 0 0 0 0 0 0
mrqq: max=3 avg=0.00214489

========= L2 cache stats =========
L2_cache_bank[0]: Access = 80, Miss = 68, Miss_rate = 0.850, Pending_hits = 0, Reservation_fails = 0
L2_cache_bank[1]: Access = 78, Miss = 66, Miss_rate = 0.846, Pending_hits = 0, Reservation_fails = 0
L2_cache_bank[2]: Access = 76, Miss = 64, Miss_rate = 0.842, Pending_hits = 0, Reservation_fails = 0
L2_cache_bank[3]: Access = 74, Miss = 62, Miss_rate = 0.838, Pending_hits = 0, Reservation_fails = 0
L2_cache_bank[4]: Access = 72, Miss = 60, Miss_rate = 0.833, Pending_hits = 0, Reservation_fails = 0
L2_cache_bank[5]: Access = 72, Miss = 60, Miss_rate = 0.833, Pending_hits = 0, Reservation_fails = 0
L2_cache_bank[6]: Access = 72, Miss = 60, Miss_rate = 0.833, Pending_hits = 0, Reservation_fails = 0
L2_cache_bank[7]: Access = 72, Miss = 60, Miss_rate = 0.833, Pending_hits = 0, Reservation_fails = 0
L2_cache_bank[8]: Access = 76, Miss = 64, Miss_rate = 0.842, Pending_hits = 0, Reservation_fails = 0
L2_cache_bank[9]: Access = 72, Miss = 60, Miss_rate = 0.833, Pending_hits = 0, Reservation_fails = 0
L2_cache_bank[10]: Access = 76, Miss = 64, Miss_rate = 0.842, Pending_hits = 0, Reservation_fails = 0
L2_cache_bank[11]: Access = 76, Miss = 64, Miss_rate = 0.842, Pending_hits = 0, Reservation_fails = 0
L2_cache_bank[12]: Access = 76, Miss = 64, Miss_rate = 0.842, Pending_hits = 0, Reservation_fails = 0
L2_cache_bank[13]: Access = 76, Miss = 64, Miss_rate = 0.842, Pending_hits = 0, Reservation_fails = 0
L2_cache_bank[14]: Access = 76, Miss = 64, Miss_rate = 0.842, Pending_hits = 0, Reservation_fails = 0
L2_cache_bank[15]: Access = 80, Miss = 68, Miss_rate = 0.850, Pending_hits = 0, Reservation_fails = 0
L2_cache_bank[16]: Access = 76, Miss = 68, Miss_rate = 0.895, Pending_hits = 0, Reservation_fails = 0
L2_cache_bank[17]: Access = 76, Miss = 68, Miss_rate = 0.895, Pending_hits = 0, Reservation_fails = 0
L2_cache_bank[18]: Access = 76, Miss = 68, Miss_rate = 0.895, Pending_hits = 0, Reservation_fails = 0
L2_cache_bank[19]: Access = 76, Miss = 68, Miss_rate = 0.895, Pending_hits = 0, Reservation_fails = 0
L2_cache_bank[20]: Access = 76, Miss = 68, Miss_rate = 0.895, Pending_hits = 0, Reservation_fails = 0
L2_cache_bank[21]: Access = 76, Miss = 68, Miss_rate = 0.895, Pending_hits = 0, Reservation_fails = 0
L2_cache_bank[22]: Access = 76, Miss = 68, Miss_rate = 0.895, Pending_hits = 0, Reservation_fails = 0
L2_cache_bank[23]: Access = 76, Miss = 68, Miss_rate = 0.895, Pending_hits = 0, Reservation_fails = 0
L2_total_cache_accesses = 1812
L2_total_cache_misses = 1556
L2_total_cache_miss_rate = 0.8587
L2_total_cache_pending_hits = 0
L2_total_cache_reservation_fails = 0
L2_total_cache_breakdown:
	L2_cache_stats_breakdown[GLOBAL_ACC_R][HIT] = 256
	L2_cache_stats_breakdown[GLOBAL_ACC_R][HIT_RESERVED] = 0
	L2_cache_stats_breakdown[GLOBAL_ACC_R][MISS] = 0
	L2_cache_stats_breakdown[GLOBAL_ACC_R][RESERVATION_FAIL] = 0
	L2_cache_stats_breakdown[GLOBAL_ACC_R][SECTOR_MISS] = 0
	L2_cache_stats_breakdown[LOCAL_ACC_R][HIT] = 0
	L2_cache_stats_breakdown[LOCAL_ACC_R][HIT_RESERVED] = 0
	L2_cache_stats_breakdown[LOCAL_ACC_R][MISS] = 0
	L2_cache_stats_breakdown[LOCAL_ACC_R][RESERVATION_FAIL] = 0
	L2_cache_stats_breakdown[LOCAL_ACC_R][SECTOR_MISS] = 0
	L2_cache_stats_breakdown[CONST_ACC_R][HIT] = 0
	L2_cache_stats_breakdown[CONST_ACC_R][HIT_RESERVED] = 0
	L2_cache_stats_breakdown[CONST_ACC_R][MISS] = 4
	L2_cache_stats_breakdown[CONST_ACC_R][RESERVATION_FAIL] = 0
	L2_cache_stats_breakdown[CONST_ACC_R][SECTOR_MISS] = 8
	L2_cache_stats_breakdown[TEXTURE_ACC_R][HIT] = 0
	L2_cache_stats_breakdown[TEXTURE_ACC_R][HIT_RESERVED] = 0
	L2_cache_stats_breakdown[TEXTURE_ACC_R][MISS] = 0
	L2_cache_stats_breakdown[TEXTURE_ACC_R][RESERVATION_FAIL] = 0
	L2_cache_stats_breakdown[TEXTURE_ACC_R][SECTOR_MISS] = 0
	L2_cache_stats_breakdown[GLOBAL_ACC_W][HIT] = 0
	L2_cache_stats_breakdown[GLOBAL_ACC_W][HIT_RESERVED] = 0
	L2_cache_stats_breakdown[GLOBAL_ACC_W][MISS] = 256
	L2_cache_stats_breakdown[GLOBAL_ACC_W][RESERVATION_FAIL] = 0
	L2_cache_stats_breakdown[GLOBAL_ACC_W][SECTOR_MISS] = 768
	L2_cache_stats_breakdown[LOCAL_ACC_W][HIT] = 0
	L2_cache_stats_breakdown[LOCAL_ACC_W][HIT_RESERVED] = 0
	L2_cache_stats_breakdown[LOCAL_ACC_W][MISS] = 0
	L2_cache_stats_breakdown[LOCAL_ACC_W][RESERVATION_FAIL] = 0
	L2_cache_stats_breakdown[LOCAL_ACC_W][SECTOR_MISS] = 0
	L2_cache_stats_breakdown[L1_WRBK_ACC][HIT] = 0
	L2_cache_stats_breakdown[L1_WRBK_ACC][HIT_RESERVED] = 0
	L2_cache_stats_breakdown[L1_WRBK_ACC][MISS] = 0
	L2_cache_stats_breakdown[L1_WRBK_ACC][RESERVATION_FAIL] = 0
	L2_cache_stats_breakdown[L1_WRBK_ACC][SECTOR_MISS] = 0
	L2_cache_stats_breakdown[L2_WRBK_ACC][HIT] = 0
	L2_cache_stats_breakdown[L2_WRBK_ACC][HIT_RESERVED] = 0
	L2_cache_stats_breakdown[L2_WRBK_ACC][MISS] = 0
	L2_cache_stats_breakdown[L2_WRBK_ACC][RESERVATION_FAIL] = 0
	L2_cache_stats_breakdown[L2_WRBK_ACC][SECTOR_MISS] = 0
	L2_cache_stats_breakdown[INST_ACC_R][HIT] = 0
	L2_cache_stats_breakdown[INST_ACC_R][HIT_RESERVED] = 0
	L2_cache_stats_breakdown[INST_ACC_R][MISS] = 130
	L2_cache_stats_breakdown[INST_ACC_R][RESERVATION_FAIL] = 0
	L2_cache_stats_breakdown[INST_ACC_R][SECTOR_MISS] = 390
	L2_cache_stats_breakdown[L1_WR_ALLOC_R][HIT] = 0
	L2_cache_stats_breakdown[L1_WR_ALLOC_R][HIT_RESERVED] = 0
	L2_cache_stats_breakdown[L1_WR_ALLOC_R][MISS] = 0
	L2_cache_stats_breakdown[L1_WR_ALLOC_R][RESERVATION_FAIL] = 0
	L2_cache_stats_breakdown[L1_WR_ALLOC_R][SECTOR_MISS] = 0
	L2_cache_stats_breakdown[L2_WR_ALLOC_R][HIT] = 0
	L2_cache_stats_breakdown[L2_WR_ALLOC_R][HIT_RESERVED] = 0
	L2_cache_stats_breakdown[L2_WR_ALLOC_R][MISS] = 0
	L2_cache_stats_breakdown[L2_WR_ALLOC_R][RESERVATION_FAIL] = 0
	L2_cache_stats_breakdown[L2_WR_ALLOC_R][SECTOR_MISS] = 0
	L2_cache_stats_breakdown[GLOBAL_ACC_R][TOTAL_ACCESS] = 256
	L2_cache_stats_breakdown[CONST_ACC_R][TOTAL_ACCESS] = 12
	L2_cache_stats_breakdown[GLOBAL_ACC_W][TOTAL_ACCESS] = 1024
	L2_cache_stats_breakdown[INST_ACC_R][TOTAL_ACCESS] = 520
L2_total_cache_reservation_fail_breakdown:
L2_cache_data_port_util = 0.000
L2_cache_fill_port_util = 0.001

icnt_total_pkts_mem_to_simt=1812
icnt_total_pkts_simt_to_mem=1416
LD_mem_lat_dist  0 0 0 0 0 0 0 0 0 0 0 0 0 0 0 0 0 0 0 0 0 0 0 0 0 0 0
ST_mem_lat_dist  0 0 0 0 0 0 0 0 0 0 0 0 0 0 0 0 0 0 0 0 0 0 0 0 0 0 0
----------------------------Interconnect-DETAILS--------------------------------
Class 0:
Packet latency average = 5.06382
	minimum = 5
	maximum = 6
Network latency average = 5
	minimum = 5
	maximum = 5
Slowest packet = 0
Flit latency average = 5
	minimum = 5
	maximum = 5
Slowest flit = 0
Fragmentation average = 0
	minimum = 0
	maximum = 0
Injected packet rate average = 0.00145905
	minimum = 0 (at node 1)
	maximum = 0.0332816 (at node 0)
Accepted packet rate average = 0.00145905
	minimum = 0 (at node 1)
	maximum = 0.0425892 (at node 0)
Injected flit rate average = 0.00145905
	minimum = 0 (at node 1)
	maximum = 0.0332816 (at node 0)
Accepted flit rate average= 0.00145905
	minimum = 0 (at node 1)
	maximum = 0.0425892 (at node 0)
Injected packet length average = 1
Accepted packet length average = 1
Total in-flight flits = 0 (0 measured)
====== Overall Traffic Statistics ======
====== Traffic class 0 ======
Packet latency average = 5.06382 (1 samples)
	minimum = 5 (1 samples)
	maximum = 6 (1 samples)
Network latency average = 5 (1 samples)
	minimum = 5 (1 samples)
	maximum = 5 (1 samples)
Flit latency average = 5 (1 samples)
	minimum = 5 (1 samples)
	maximum = 5 (1 samples)
Fragmentation average = 0 (1 samples)
	minimum = 0 (1 samples)
	maximum = 0 (1 samples)
Injected packet rate average = 0.00145905 (1 samples)
	minimum = 0 (1 samples)
	maximum = 0.0332816 (1 samples)
Accepted packet rate average = 0.00145905 (1 samples)
	minimum = 0 (1 samples)
	maximum = 0.0425892 (1 samples)
Injected flit rate average = 0.00145905 (1 samples)
	minimum = 0 (1 samples)
	maximum = 0.0332816 (1 samples)
Accepted flit rate average = 0.00145905 (1 samples)
	minimum = 0 (1 samples)
	maximum = 0.0425892 (1 samples)
Injected packet size average = 1 (1 samples)
Accepted packet size average = 1 (1 samples)
Hops average = 1 (1 samples)
----------------------------END-of-Interconnect-DETAILS-------------------------


gpgpu_simulation_time = 0 days, 0 hrs, 0 min, 9 sec (9 sec)
gpgpu_simulation_rate = 12686 (inst/sec)
gpgpu_simulation_rate = 4727 (cycle/sec)
gpgpu_silicon_slowdown = 299767x
GPGPU-Sim: synchronize waiting for inactive GPU simulation
GPGPU-Sim API: Stream Manager State
GPGPU-Sim: detected inactive GPU simulation thread
Successfully Launched
Result Verified
GPGPU-Sim: *** exit detected ***
