

        *** GPGPU-Sim Simulator Version 4.0.0  [build gpgpu-sim_git-commit-b1fdc6da937e638fc1cf735829613f1037bbbf1a_modified_0.0] ***


GPGPU-Sim PTX: simulation mode 0 (can change with PTX_SIM_MODE_FUNC environment variable:
               1=functional simulation only, 0=detailed performance simulator)
GPGPU-Sim PTX: overriding embedded ptx with ptx file (PTX_SIM_USE_PTX_FILE is set)
GPGPU-Sim: Configuration options:

-save_embedded_ptx                      0 # saves ptx files embedded in binary as <n>.ptx
-keep                                   0 # keep intermediate files created by GPGPU-Sim when interfacing with external programs
-gpgpu_ptx_save_converted_ptxplus                    0 # Saved converted ptxplus to a file
-gpgpu_occupancy_sm_number                   62 # The SM number to pass to ptxas when getting register usage for computing GPU occupancy. This parameter is required in the config.
-ptx_opcode_latency_int      4,13,4,5,145,32 # Opcode latencies for integers <ADD,MAX,MUL,MAD,DIV,SHFL>Default 1,1,19,25,145,32
-ptx_opcode_latency_fp          4,13,4,5,39 # Opcode latencies for single precision floating points <ADD,MAX,MUL,MAD,DIV>Default 1,1,1,1,30
-ptx_opcode_latency_dp         8,19,8,8,330 # Opcode latencies for double precision floating points <ADD,MAX,MUL,MAD,DIV>Default 8,8,8,8,335
-ptx_opcode_latency_sfu                    8 # Opcode latencies for SFU instructionsDefault 8
-ptx_opcode_latency_tesnor                   64 # Opcode latencies for Tensor instructionsDefault 64
-ptx_opcode_initiation_int          1,1,1,1,4,4 # Opcode initiation intervals for integers <ADD,MAX,MUL,MAD,DIV,SHFL>Default 1,1,4,4,32,4
-ptx_opcode_initiation_fp            1,2,1,1,4 # Opcode initiation intervals for single precision floating points <ADD,MAX,MUL,MAD,DIV>Default 1,1,1,1,5
-ptx_opcode_initiation_dp          8,8,8,8,130 # Opcode initiation intervals for double precision floating points <ADD,MAX,MUL,MAD,DIV>Default 8,8,8,8,130
-ptx_opcode_initiation_sfu                    4 # Opcode initiation intervals for sfu instructionsDefault 8
-ptx_opcode_initiation_tensor                   64 # Opcode initiation intervals for tensor instructionsDefault 64
-cdp_latency         7200,8000,100,12000,1600 # CDP API latency <cudaStreamCreateWithFlags, cudaGetParameterBufferV2_init_perWarp, cudaGetParameterBufferV2_perKernel, cudaLaunchDeviceV2_init_perWarp, cudaLaunchDevicV2_perKernel>Default 7200,8000,100,12000,1600
-network_mode                           1 # Interconnection network mode
-inter_config_file   config_pascal_islip.icnt # Interconnection network config file
-inct_in_buffer_limit                   64 # in_buffer_limit
-inct_out_buffer_limit                   64 # out_buffer_limit
-inct_subnets                           2 # subnets
-arbiter_algo                           1 # arbiter_algo
-gpgpu_ptx_use_cuobjdump                    1 # Use cuobjdump to extract ptx and sass from binaries
-gpgpu_experimental_lib_support                    0 # Try to extract code from cuda libraries [Broken because of unknown cudaGetExportTable]
-checkpoint_option                      0 #  checkpointing flag (0 = no checkpoint)
-checkpoint_kernel                      1 #  checkpointing during execution of which kernel (1- 1st kernel)
-checkpoint_CTA                         0 #  checkpointing after # of CTA (< less than total CTA)
-resume_option                          0 #  resume flag (0 = no resume)
-resume_kernel                          0 #  Resume from which kernel (1= 1st kernel)
-resume_CTA                             0 #  resume from which CTA 
-checkpoint_CTA_t                       0 #  resume from which CTA 
-checkpoint_insn_Y                      0 #  resume from which CTA 
-gpgpu_ptx_convert_to_ptxplus                    0 # Convert SASS (native ISA) to ptxplus and run ptxplus
-gpgpu_ptx_force_max_capability                   61 # Force maximum compute capability
-gpgpu_ptx_inst_debug_to_file                    0 # Dump executed instructions' debug information to file
-gpgpu_ptx_inst_debug_file       inst_debug.txt # Executed instructions' debug output file
-gpgpu_ptx_inst_debug_thread_uid                    1 # Thread UID for executed instructions' debug output
-gpgpu_simd_model                       1 # 1 = post-dominator
-gpgpu_shader_core_pipeline              1024:32 # shader core pipeline config, i.e., {<nthread>:<warpsize>}
-gpgpu_tex_cache:l1  N:16:128:24,L:R:m:N:L,T:128:4,128:2 # per-shader L1 texture cache  (READ-ONLY) config  {<nsets>:<bsize>:<assoc>,<rep>:<wr>:<alloc>:<wr_alloc>,<mshr>:<N>:<merge>,<mq>:<rf>}
-gpgpu_const_cache:l1 N:128:64:2,L:R:f:N:L,S:2:64,4 # per-shader L1 constant memory cache  (READ-ONLY) config  {<nsets>:<bsize>:<assoc>,<rep>:<wr>:<alloc>:<wr_alloc>,<mshr>:<N>:<merge>,<mq>} 
-gpgpu_cache:il1     N:8:128:4,L:R:f:N:L,S:2:48,4 # shader L1 instruction cache config  {<nsets>:<bsize>:<assoc>,<rep>:<wr>:<alloc>:<wr_alloc>,<mshr>:<N>:<merge>,<mq>} 
-gpgpu_cache:dl1     S:4:128:48,L:L:s:N:L,A:256:8,16:0,32 # per-shader L1 data cache config  {<nsets>:<bsize>:<assoc>,<rep>:<wr>:<alloc>:<wr_alloc>,<mshr>:<N>:<merge>,<mq> | none}
-l1_banks                               1 # The number of L1 cache banks
-l1_latency                            82 # L1 Hit Latency
-smem_latency                          24 # smem Latency
-gpgpu_cache:dl1PrefL1 S:4:128:48,L:L:s:N:L,A:256:8,16:0,32 # per-shader L1 data cache config  {<nsets>:<bsize>:<assoc>,<rep>:<wr>:<alloc>:<wr_alloc>,<mshr>:<N>:<merge>,<mq> | none}
-gpgpu_cache:dl1PrefShared S:4:128:48,L:L:s:N:L,A:256:8,16:0,32 # per-shader L1 data cache config  {<nsets>:<bsize>:<assoc>,<rep>:<wr>:<alloc>:<wr_alloc>,<mshr>:<N>:<merge>,<mq> | none}
-gmem_skip_L1D                          1 # global memory access skip L1D cache (implements -Xptxas -dlcm=cg, default=no skip)
-gpgpu_perfect_mem                      0 # enable perfect memory mode (no cache miss)
-n_regfile_gating_group                    4 # group of lanes that should be read/written together)
-gpgpu_clock_gated_reg_file                    0 # enable clock gated reg file for power calculations
-gpgpu_clock_gated_lanes                    0 # enable clock gated lanes for power calculations
-gpgpu_shader_registers                32768 # Number of registers per shader core. Limits number of concurrent CTAs. (default 8192)
-gpgpu_registers_per_block                 8192 # Maximum number of registers per CTA. (default 8192)
-gpgpu_ignore_resources_limitation                    1 # gpgpu_ignore_resources_limitation (default 0)
-gpgpu_shader_cta                      16 # Maximum number of concurrent CTAs in shader (default 8)
-gpgpu_num_cta_barriers                   16 # Maximum number of named barriers per CTA (default 16)
-gpgpu_n_clusters                      28 # number of processing clusters
-gpgpu_n_cores_per_cluster                    2 # number of simd cores per cluster
-gpgpu_n_cluster_ejection_buffer_size                   32 # number of packets in ejection buffer
-gpgpu_n_ldst_response_buffer_size                    2 # number of response packets in ld/st unit ejection buffer
-gpgpu_shmem_per_block                49152 # Size of shared memory per thread block or CTA (default 48kB)
-gpgpu_shmem_size                   49152 # Size of shared memory per shader core (default 16kB)
-adaptive_cache_config                    0 # adaptive_cache_config
-gpgpu_shmem_sizeDefault                49152 # Size of shared memory per shader core (default 16kB)
-gpgpu_shmem_size_PrefL1                49152 # Size of shared memory per shader core (default 16kB)
-gpgpu_shmem_size_PrefShared                49152 # Size of shared memory per shader core (default 16kB)
-gpgpu_shmem_num_banks                   32 # Number of banks in the shared memory in each shader core (default 16)
-gpgpu_shmem_limited_broadcast                    0 # Limit shared memory to do one broadcast per cycle (default on)
-gpgpu_shmem_warp_parts                    1 # Number of portions a warp is divided into for shared memory bank conflict check 
-mem_unit_ports                         1 # The number of memory transactions allowed per core cycle
-gpgpu_shmem_warp_parts                    1 # Number of portions a warp is divided into for shared memory bank conflict check 
-gpgpu_warpdistro_shader                   -1 # Specify which shader core to collect the warp size distribution from
-gpgpu_warp_issue_shader                    0 # Specify which shader core to collect the warp issue distribution from
-gpgpu_local_mem_map                    1 # Mapping from local memory space address to simulated GPU physical address space (default = enabled)
-gpgpu_num_reg_banks                   32 # Number of register banks (default = 8)
-gpgpu_reg_bank_use_warp_id                    0 # Use warp ID in mapping registers to banks (default = off)
-sub_core_model                         0 # Sub Core Volta/Pascal model (default = off)
-enable_specialized_operand_collector                    1 # enable_specialized_operand_collector
-gpgpu_operand_collector_num_units_sp                   12 # number of collector units (default = 4)
-gpgpu_operand_collector_num_units_dp                    6 # number of collector units (default = 0)
-gpgpu_operand_collector_num_units_sfu                    6 # number of collector units (default = 4)
-gpgpu_operand_collector_num_units_int                    0 # number of collector units (default = 0)
-gpgpu_operand_collector_num_units_tensor_core                    4 # number of collector units (default = 4)
-gpgpu_operand_collector_num_units_mem                    8 # number of collector units (default = 2)
-gpgpu_operand_collector_num_units_gen                    0 # number of collector units (default = 0)
-gpgpu_operand_collector_num_in_ports_sp                    2 # number of collector unit in ports (default = 1)
-gpgpu_operand_collector_num_in_ports_dp                    1 # number of collector unit in ports (default = 0)
-gpgpu_operand_collector_num_in_ports_sfu                    2 # number of collector unit in ports (default = 1)
-gpgpu_operand_collector_num_in_ports_int                    0 # number of collector unit in ports (default = 0)
-gpgpu_operand_collector_num_in_ports_tensor_core                    1 # number of collector unit in ports (default = 1)
-gpgpu_operand_collector_num_in_ports_mem                    1 # number of collector unit in ports (default = 1)
-gpgpu_operand_collector_num_in_ports_gen                    0 # number of collector unit in ports (default = 0)
-gpgpu_operand_collector_num_out_ports_sp                    2 # number of collector unit in ports (default = 1)
-gpgpu_operand_collector_num_out_ports_dp                    1 # number of collector unit in ports (default = 0)
-gpgpu_operand_collector_num_out_ports_sfu                    2 # number of collector unit in ports (default = 1)
-gpgpu_operand_collector_num_out_ports_int                    0 # number of collector unit in ports (default = 0)
-gpgpu_operand_collector_num_out_ports_tensor_core                    1 # number of collector unit in ports (default = 1)
-gpgpu_operand_collector_num_out_ports_mem                    1 # number of collector unit in ports (default = 1)
-gpgpu_operand_collector_num_out_ports_gen                    0 # number of collector unit in ports (default = 0)
-gpgpu_coalesce_arch                   61 # Coalescing arch (GT200 = 13, Fermi = 20)
-gpgpu_num_sched_per_core                    2 # Number of warp schedulers per core
-gpgpu_max_insn_issue_per_warp                    2 # Max number of instructions that can be issued per warp in one cycle by scheduler (either 1 or 2)
-gpgpu_dual_issue_diff_exec_units                    1 # should dual issue use two different execution unit resources (Default = 1)
-gpgpu_simt_core_sim_order                    1 # Select the simulation order of cores in a cluster (0=Fix, 1=Round-Robin)
-gpgpu_pipeline_widths 2,1,0,2,1,2,1,0,2,1,5 # Pipeline widths ID_OC_SP,ID_OC_DP,ID_OC_INT,ID_OC_SFU,ID_OC_MEM,OC_EX_SP,OC_EX_DP,OC_EX_INT,OC_EX_SFU,OC_EX_MEM,EX_WB,ID_OC_TENSOR_CORE,OC_EX_TENSOR_CORE
-gpgpu_tensor_core_avail                    0 # Tensor Core Available (default=0)
-gpgpu_num_sp_units                     2 # Number of SP units (default=1)
-gpgpu_num_dp_units                     1 # Number of DP units (default=0)
-gpgpu_num_int_units                    0 # Number of INT units (default=0)
-gpgpu_num_sfu_units                    2 # Number of SF units (default=1)
-gpgpu_num_tensor_core_units                    1 # Number of tensor_core units (default=1)
-gpgpu_num_mem_units                    1 # Number if ldst units (default=1) WARNING: not hooked up to anything
-gpgpu_scheduler                      gto # Scheduler configuration: < lrr | gto | two_level_active > If two_level_active:<num_active_warps>:<inner_prioritization>:<outer_prioritization>For complete list of prioritization values see shader.h enum scheduler_prioritization_typeDefault: gto
-gpgpu_concurrent_kernel_sm                    0 # Support concurrent kernels on a SM (default = disabled)
-perf_sim_memcpy                        1 # Fill the L2 cache on memcpy
-simple_dram_model                      0 # simple_dram_model with fixed latency and BW
-gpgpu_dram_scheduler                    1 # 0 = fifo, 1 = FR-FCFS (defaul)
-gpgpu_dram_partition_queues          32:32:32:32 # i2$:$2d:d2$:$2i
-l2_ideal                               0 # Use a ideal L2 cache that always hit
-gpgpu_cache:dl2     S:64:128:16,L:B:m:L:L,A:256:64,16:0,32 # unified banked L2 data cache config  {<nsets>:<bsize>:<assoc>,<rep>:<wr>:<alloc>:<wr_alloc>,<mshr>:<N>:<merge>,<mq>}
-gpgpu_cache:dl2_texture_only                    0 # L2 cache used for texture only
-gpgpu_n_mem                           12 # number of memory modules (e.g. memory controllers) in gpu
-gpgpu_n_sub_partition_per_mchannel                    2 # number of memory subpartition in each memory module
-gpgpu_n_mem_per_ctrlr                    1 # number of memory chips per memory controller
-gpgpu_memlatency_stat                   14 # track and display latency statistics 0x2 enables MC, 0x4 enables queue logs
-gpgpu_frfcfs_dram_sched_queue_size                   64 # 0 = unlimited (default); # entries per chip
-gpgpu_dram_return_queue_size                   64 # 0 = unlimited (default); # entries per chip
-gpgpu_dram_buswidth                    4 # default = 4 bytes (8 bytes per cycle at DDR)
-gpgpu_dram_burst_length                    8 # Burst length of each DRAM request (default = 4 data bus cycle)
-dram_data_command_freq_ratio                    4 # Frequency ratio between DRAM data bus and command bus (default = 2 times, i.e. DDR)
-gpgpu_dram_timing_opt nbk=16:CCD=2:RRD=8:RCD=16:RAS=37:RP=16:RC=52: CL=16:WL=6:CDLR=7:WR=16:nbkgrp=4:CCDL=4:RTPL=3 # DRAM timing parameters = {nbk:tCCD:tRRD:tRCD:tRAS:tRP:tRC:CL:WL:tCDLR:tWR:nbkgrp:tCCDL:tRTPL}
-rop_latency                          120 # ROP queue latency (default 85)
-dram_latency                         100 # DRAM latency (default 30)
-dual_bus_interface                     0 # dual_bus_interface (default = 0) 
-dram_bnk_indexing_policy                    0 # dram_bnk_indexing_policy (0 = normal indexing, 1 = Xoring with the higher bits) (Default = 0)
-dram_bnkgrp_indexing_policy                    1 # dram_bnkgrp_indexing_policy (0 = take higher bits, 1 = take lower bits) (Default = 0)
-Seperate_Write_Queue_Enable                    0 # Seperate_Write_Queue_Enable
-Write_Queue_Size                32:28:16 # Write_Queue_Size
-Elimnate_rw_turnaround                    0 # elimnate_rw_turnaround i.e set tWTR and tRTW = 0
-icnt_flit_size                        40 # icnt_flit_size
-gpgpu_mem_addr_mapping dramid@8;00000000.00000000.00000000.00000000.0000RRRR.RRRRRRRR.RBBBCCCC.BCCSSSSS # mapping memory address to dram model {dramid@<start bit>;<memory address map>}
-gpgpu_mem_addr_test                    0 # run sweep test to check address mapping for aliased address
-gpgpu_mem_address_mask                    1 # 0 = old addressing mask, 1 = new addressing mask, 2 = new add. mask + flipped bank sel and chip sel bits
-memory_partition_indexing                    0 # 0 = no indexing, 1 = bitwise xoring, 2 = IPoly, 3 = custom indexing
-gpuwattch_xml_file         gpuwattch.xml # GPUWattch XML file
-power_simulation_enabled                    0 # Turn on power simulator (1=On, 0=Off)
-power_per_cycle_dump                    0 # Dump detailed power output each cycle
-power_trace_enabled                    0 # produce a file for the power trace (1=On, 0=Off)
-power_trace_zlevel                     6 # Compression level of the power trace output log (0=no comp, 9=highest)
-steady_power_levels_enabled                    0 # produce a file for the steady power levels (1=On, 0=Off)
-steady_state_definition                  8:4 # allowed deviation:number of samples
-gpgpu_max_cycle                        0 # terminates gpu simulation early (0 = no limit)
-gpgpu_max_insn                         0 # terminates gpu simulation early (0 = no limit)
-gpgpu_max_cta                          0 # terminates gpu simulation early (0 = no limit)
-gpgpu_max_completed_cta                    0 # terminates gpu simulation early (0 = no limit)
-gpgpu_runtime_stat                   500 # display runtime statistics such as dram utilization {<freq>:<flag>}
-liveness_message_freq                    1 # Minimum number of seconds between simulation liveness messages (0 = always print)
-gpgpu_compute_capability_major                    6 # Major compute capability version number
-gpgpu_compute_capability_minor                    1 # Minor compute capability version number
-gpgpu_flush_l1_cache                    1 # Flush L1 cache at the end of each kernel call
-gpgpu_flush_l2_cache                    0 # Flush L2 cache at the end of each kernel call
-gpgpu_deadlock_detect                    1 # Stop the simulation at deadlock (1=on (default), 0=off)
-gpgpu_ptx_instruction_classification                    0 # if enabled will classify ptx instruction types per kernel (Max 255 kernels now)
-gpgpu_ptx_sim_mode                     0 # Select between Performance (default) or Functional simulation (1)
-gpgpu_clock_domains 1417.0:1417.0:1417.0:2500.0 # Clock Domain Frequencies in MhZ {<Core Clock>:<ICNT Clock>:<L2 Clock>:<DRAM Clock>}
-gpgpu_max_concurrent_kernel                    8 # maximum kernels that can run concurrently on GPU
-gpgpu_cflog_interval                    0 # Interval between each snapshot in control flow logger
-visualizer_enabled                     0 # Turn on visualizer output (1=On, 0=Off)
-visualizer_outputfile                 NULL # Specifies the output log file for visualizer
-visualizer_zlevel                      6 # Compression level of the visualizer output log (0=no comp, 9=highest)
-gpgpu_stack_size_limit                 1024 # GPU thread stack size
-gpgpu_heap_size_limit              8388608 # GPU malloc heap size 
-gpgpu_runtime_sync_depth_limit                    2 # GPU device runtime synchronize depth
-gpgpu_runtime_pending_launch_count_limit                 2048 # GPU device runtime pending launch count
-trace_enabled                          0 # Turn on traces
-trace_components                    none # comma seperated list of traces to enable. Complete list found in trace_streams.tup. Default none
-trace_sampling_core                    0 # The core which is printed using CORE_DPRINTF. Default 0
-trace_sampling_memory_partition                   -1 # The memory partition which is printed using MEMPART_DPRINTF. Default -1 (i.e. all)
-enable_ptx_file_line_stats                    1 # Turn on PTX source line statistic profiling. (1 = On)
-ptx_line_stats_filename gpgpu_inst_stats.txt # Output file for PTX source line statistics.
-gpgpu_kernel_launch_latency                    0 # Kernel launch latency in cycles. Default: 0
-gpgpu_cdp_enabled                      0 # Turn on CDP
DRAM Timing Options:
nbk                                    16 # number of banks
CCD                                     2 # column to column delay
RRD                                     8 # minimal delay between activation of rows in different banks
RCD                                    16 # row to column delay
RAS                                    37 # time needed to activate row
RP                                     16 # time needed to precharge (deactivate) row
RC                                     52 # row cycle time
CDLR                                    7 # switching from write to read (changes tWTR)
WR                                     16 # last data-in to row precharge
CL                                     16 # CAS latency
WL                                      6 # Write latency
nbkgrp                                  4 # number of bank groups
CCDL                                    4 # column to column delay between accesses to different bank groups
RTPL                                    3 # read to precharge delay between accesses to different bank groups
Total number of memory sub partition = 24
addr_dec_mask[CHIP]  = 0000000000000000 	high:64 low:0
addr_dec_mask[BK]    = 0000000000007080 	high:15 low:7
addr_dec_mask[ROW]   = 000000000fff8000 	high:28 low:15
addr_dec_mask[COL]   = 0000000000000f7f 	high:12 low:0
addr_dec_mask[BURST] = 000000000000001f 	high:5 low:0
sub_partition_id_mask = 0000000000000080
GPGPU-Sim uArch: clock freqs: 1417000000.000000:1417000000.000000:1417000000.000000:2500000000.000000
GPGPU-Sim uArch: clock periods: 0.00000000070571630205:0.00000000070571630205:0.00000000070571630205:0.00000000040000000000
*** Initializing Memory Statistics ***
GPGPU-Sim uArch: interconnect node map (shaderID+MemID to icntID)
GPGPU-Sim uArch: Memory nodes ID start from index: 28
GPGPU-Sim uArch:    0   1   2   3   4   5   6
GPGPU-Sim uArch:    7   8   9  10  11  12  13
GPGPU-Sim uArch:   14  15  16  17  18  19  20
GPGPU-Sim uArch:   21  22  23  24  25  26  27
GPGPU-Sim uArch:   28  29  30  31  32  33  34
GPGPU-Sim uArch:   35  36  37  38  39  40  41
GPGPU-Sim uArch:   42  43  44  45  46  47  48
GPGPU-Sim uArch:   49  50  51
GPGPU-Sim uArch: interconnect node reverse map (icntID to shaderID+MemID)
GPGPU-Sim uArch: Memory nodes start from ID: 28
GPGPU-Sim uArch:    0   1   2   3   4   5   6
GPGPU-Sim uArch:    7   8   9  10  11  12  13
GPGPU-Sim uArch:   14  15  16  17  18  19  20
GPGPU-Sim uArch:   21  22  23  24  25  26  27
GPGPU-Sim uArch:   28  29  30  31  32  33  34
GPGPU-Sim uArch:   35  36  37  38  39  40  41
GPGPU-Sim uArch:   42  43  44  45  46  47  48
GPGPU-Sim uArch:   49  50  51
6a40ec8f84387ec2a3ae92da9264eefe  /home/ee557/Desktop/p4/cutlass-gpgpu-sim/cutlass-test
Extracting PTX file and ptxas options    1: cutlass-test.1.sm_70.ptx -arch=sm_70
GPGPU-Sim uArch: performance model initialization complete.
self exe links to: /home/ee557/Desktop/p4/cutlass-gpgpu-sim/cutlass-test
self exe links to: /home/ee557/Desktop/p4/cutlass-gpgpu-sim/cutlass-test
9.1
GPGPU-Sim PTX: __cudaRegisterFatBinary, fat_cubin_handle = 1, filename=default
self exe links to: /home/ee557/Desktop/p4/cutlass-gpgpu-sim/cutlass-test
Running md5sum using "md5sum /home/ee557/Desktop/p4/cutlass-gpgpu-sim/cutlass-test "
self exe links to: /home/ee557/Desktop/p4/cutlass-gpgpu-sim/cutlass-test
Extracting specific PTX file named cutlass-test.1.sm_70.ptx 
GPGPU-Sim PTX: __cudaRegisterFunction _ZN7cutlass4gemm11gemm_kernelINS0_4GemmINS0_11SgemmTraitsILNS_12MatrixLayout4KindE1ELS5_0ENS_5ShapeILi8ELi128ELi128ELi1EEENS0_13LinearScalingIfNS0_19FragmentMultiplyAddIfEEEENS6_ILi8ELi8ELi8ELi1EEELi1ELi1EiNS0_11SgemmConfigIS7_SC_Li1ELi1EEENS0_28SimplifiedGemmEpilogueTraitsISE_SB_iNS0_24GemmEpilogueTraitsHelperISE_SB_iEEEEEEEEEEvNT_6ParamsE : hostFun 0x0x402cdc, fat_cubin_handle = 1
GPGPU-Sim PTX: Parsing cutlass-test.1.sm_70.ptx
GPGPU-Sim PTX: allocating stack frame region for .param "__assertfail_param_0" from 0x0 to 0x8
GPGPU-Sim PTX: allocating stack frame region for .param "__assertfail_param_1" from 0x8 to 0x10
GPGPU-Sim PTX: allocating stack frame region for .param "__assertfail_param_2" from 0x10 to 0x14
GPGPU-Sim PTX: allocating stack frame region for .param "__assertfail_param_3" from 0x14 to 0x1c
GPGPU-Sim PTX: allocating stack frame region for .param "__assertfail_param_4" from 0x1c to 0x24
GPGPU-Sim PTX: allocating global region for "__unnamed_1" from 0x100 to 0x18e (global memory space)
GPGPU-Sim PTX: allocating global region for "__unnamed_2" from 0x200 to 0x28f (global memory space)
GPGPU-Sim PTX: allocating global region for "__unnamed_3" from 0x300 to 0x38f (global memory space)
GPGPU-Sim PTX: allocating global region for "__unnamed_4" from 0x400 to 0x48e (global memory space)
GPGPU-Sim PTX: allocating global region for "$str" from 0x500 to 0x50f (global memory space)
GPGPU-Sim PTX: allocating global region for "$str1" from 0x580 to 0x595 (global memory space)
GPGPU-Sim PTX: allocating shared region for "_ZN7cutlass4gemm11gemm_kernelINS0_4GemmINS0_11SgemmTraitsILNS_12MatrixLayout4KindE1ELS5_0ENS_5ShapeILi8ELi128ELi128ELi1EEENS0_13LinearScalingIfNS0_19FragmentMultiplyAddIfEEEENS6_ILi8ELi8ELi8ELi1EEELi1ELi1EiNS0_11SgemmConfigIS7_SC_Li1ELi1EEENS0_28SimplifiedGemmEpilogueTraitsISE_SB_iNS0_24GemmEpilogueTraitsHelperISE_SB_iEEEEEEEEEEvNT_6ParamsE$__cuda_local_var_31507_57_non_const_shared_storage" from 0x0 to 0x4010 (shared memory space)
GPGPU-Sim PTX: allocating stack frame region for .param "param0" from 0x0 to 0x8
GPGPU-Sim PTX: allocating stack frame region for .param "param1" from 0x8 to 0x10
GPGPU-Sim PTX: allocating stack frame region for .param "param2" from 0x10 to 0x14
GPGPU-Sim PTX: allocating stack frame region for .param "param3" from 0x14 to 0x1c
GPGPU-Sim PTX: allocating stack frame region for .param "param4" from 0x1c to 0x24
GPGPU-Sim PTX: allocating stack frame region for .param "param0" from 0x24 to 0x2c
GPGPU-Sim PTX: allocating stack frame region for .param "param1" from 0x2c to 0x34
GPGPU-Sim PTX: allocating stack frame region for .param "param2" from 0x34 to 0x38
GPGPU-Sim PTX: allocating stack frame region for .param "param3" from 0x38 to 0x40
GPGPU-Sim PTX: allocating stack frame region for .param "param4" from 0x40 to 0x48
GPGPU-Sim PTX: allocating stack frame region for .param "param0" from 0x48 to 0x50
GPGPU-Sim PTX: allocating stack frame region for .param "param1" from 0x50 to 0x58
GPGPU-Sim PTX: allocating stack frame region for .param "param2" from 0x58 to 0x5c
GPGPU-Sim PTX: allocating stack frame region for .param "param3" from 0x5c to 0x64
GPGPU-Sim PTX: allocating stack frame region for .param "param4" from 0x64 to 0x6c
GPGPU-Sim PTX: allocating stack frame region for .param "param0" from 0x6c to 0x74
GPGPU-Sim PTX: allocating stack frame region for .param "param1" from 0x74 to 0x7c
GPGPU-Sim PTX: allocating stack frame region for .param "param2" from 0x7c to 0x80
GPGPU-Sim PTX: allocating stack frame region for .param "param3" from 0x80 to 0x88
GPGPU-Sim PTX: allocating stack frame region for .param "param4" from 0x88 to 0x90
GPGPU-Sim PTX: allocating stack frame region for .param "param0" from 0x90 to 0x98
GPGPU-Sim PTX: allocating stack frame region for .param "param1" from 0x98 to 0xa0
GPGPU-Sim PTX: allocating stack frame region for .param "param2" from 0xa0 to 0xa4
GPGPU-Sim PTX: allocating stack frame region for .param "param3" from 0xa4 to 0xac
GPGPU-Sim PTX: allocating stack frame region for .param "param4" from 0xac to 0xb4
GPGPU-Sim PTX: allocating stack frame region for .param "param0" from 0xb4 to 0xbc
GPGPU-Sim PTX: allocating stack frame region for .param "param1" from 0xbc to 0xc4
GPGPU-Sim PTX: allocating stack frame region for .param "param2" from 0xc4 to 0xc8
GPGPU-Sim PTX: allocating stack frame region for .param "param3" from 0xc8 to 0xd0
GPGPU-Sim PTX: allocating stack frame region for .param "param4" from 0xd0 to 0xd8
GPGPU-Sim PTX: allocating stack frame region for .param "param0" from 0xd8 to 0xe0
GPGPU-Sim PTX: allocating stack frame region for .param "param1" from 0xe0 to 0xe8
GPGPU-Sim PTX: allocating stack frame region for .param "param2" from 0xe8 to 0xec
GPGPU-Sim PTX: allocating stack frame region for .param "param3" from 0xec to 0xf4
GPGPU-Sim PTX: allocating stack frame region for .param "param4" from 0xf4 to 0xfc
GPGPU-Sim PTX: allocating stack frame region for .param "param0" from 0xfc to 0x104
GPGPU-Sim PTX: allocating stack frame region for .param "param1" from 0x104 to 0x10c
GPGPU-Sim PTX: allocating stack frame region for .param "param2" from 0x10c to 0x110
GPGPU-Sim PTX: allocating stack frame region for .param "param3" from 0x110 to 0x118
GPGPU-Sim PTX: allocating stack frame region for .param "param4" from 0x118 to 0x120
GPGPU-Sim PTX: allocating stack frame region for .param "param0" from 0x120 to 0x128
GPGPU-Sim PTX: allocating stack frame region for .param "param1" from 0x128 to 0x130
GPGPU-Sim PTX: allocating stack frame region for .param "param2" from 0x130 to 0x134
GPGPU-Sim PTX: allocating stack frame region for .param "param3" from 0x134 to 0x13c
GPGPU-Sim PTX: allocating stack frame region for .param "param4" from 0x13c to 0x144
GPGPU-Sim PTX: allocating stack frame region for .param "param0" from 0x144 to 0x14c
GPGPU-Sim PTX: allocating stack frame region for .param "param1" from 0x14c to 0x154
GPGPU-Sim PTX: allocating stack frame region for .param "param2" from 0x154 to 0x158
GPGPU-Sim PTX: allocating stack frame region for .param "param3" from 0x158 to 0x160
GPGPU-Sim PTX: allocating stack frame region for .param "param4" from 0x160 to 0x168
GPGPU-Sim PTX: allocating stack frame region for .param "param0" from 0x168 to 0x170
GPGPU-Sim PTX: allocating stack frame region for .param "param1" from 0x170 to 0x178
GPGPU-Sim PTX: allocating stack frame region for .param "param2" from 0x178 to 0x17c
GPGPU-Sim PTX: allocating stack frame region for .param "param3" from 0x17c to 0x184
GPGPU-Sim PTX: allocating stack frame region for .param "param4" from 0x184 to 0x18c
GPGPU-Sim PTX: allocating stack frame region for .param "param0" from 0x18c to 0x194
GPGPU-Sim PTX: allocating stack frame region for .param "param1" from 0x194 to 0x19c
GPGPU-Sim PTX: allocating stack frame region for .param "param2" from 0x19c to 0x1a0
GPGPU-Sim PTX: allocating stack frame region for .param "param3" from 0x1a0 to 0x1a8
GPGPU-Sim PTX: allocating stack frame region for .param "param4" from 0x1a8 to 0x1b0
GPGPU-Sim PTX: instruction assembly for function '_ZN7cutlass4gemm11gemm_kernelINS0_4GemmINS0_11SgemmTraitsILNS_12MatrixLayout4KindE1ELS5_0ENS_5ShapeILi8ELi128ELi128ELi1EEENS0_13LinearScalingIfNS0_19FragmentMultiplyAddIfEEEENS6_ILi8ELi8ELi8ELi1EEELi1ELi1EiNS0_11SgemmConfigIS7_SC_Li1ELi1EEENS0_28SimplifiedGemmEpilogueTraitsISE_SB_iNS0_24GemmEpilogueTraitsHelperISE_SB_iEEEEEEEEEEvNT_6ParamsE'...   done.
GPGPU-Sim PTX: finished parsing EMBEDDED .ptx file cutlass-test.1.sm_70.ptx
GPGPU-Sim PTX: loading globals with explicit initializers... 
GPGPU-Sim PTX:     initializing '__unnamed_1' ...  wrote 142 bytes
GPGPU-Sim PTX:     initializing '__unnamed_2' ...  wrote 143 bytes
GPGPU-Sim PTX:     initializing '__unnamed_3' ...  wrote 143 bytes
GPGPU-Sim PTX:     initializing '__unnamed_4' ...  wrote 142 bytes
GPGPU-Sim PTX:     initializing '$str' ...  wrote 15 bytes
GPGPU-Sim PTX:     initializing '$str1' ...  wrote 21 bytes
GPGPU-Sim PTX: finished loading globals (606 bytes total).
GPGPU-Sim PTX: loading constants with explicit initializers...  done.
GPGPU-Sim PTX: Loading PTXInfo from cutlass-test.1.sm_70.ptx
GPGPU-Sim PTX: Kernel '_ZN7cutlass4gemm11gemm_kernelINS0_4GemmINS0_11SgemmTraitsILNS_12MatrixLayout4KindE1ELS5_0ENS_5ShapeILi8ELi128ELi128ELi1EEENS0_13LinearScalingIfNS0_19FragmentMultiplyAddIfEEEENS6_ILi8ELi8ELi8ELi1EEELi1ELi1EiNS0_11SgemmConfigIS7_SC_Li1ELi1EEENS0_28SimplifiedGemmEpilogueTraitsISE_SB_iNS0_24GemmEpilogueTraitsHelperISE_SB_iEEEEEEEEEEvNT_6ParamsE' : regs=178, lmem=0, smem=16400, cmem=784
self exe links to: /home/ee557/Desktop/p4/cutlass-gpgpu-sim/cutlass-test
self exe links to: /home/ee557/Desktop/p4/cutlass-gpgpu-sim/cutlass-test
9.1
GPGPU-Sim PTX: __cudaRegisterFatBinary, fat_cubin_handle = 2, filename=default
GPGPU-Sim PTX: __cudaRegisterFunction __nv_static_51__38_cuda_device_runtime_compute_70_cpp1_ii_8b1a5d37__Z16memcpy_3d_deviceImLi1ELi1ELi1EEvPKhPhT_S3_S3_S3_S3_S3_S3_jjjjjjjjS3_S1_S2_ : hostFun 0x0x408470, fat_cubin_handle = 2
Warning: cannot find deviceFun __nv_static_51__38_cuda_device_runtime_compute_70_cpp1_ii_8b1a5d37__Z16memcpy_3d_deviceImLi1ELi1ELi1EEvPKhPhT_S3_S3_S3_S3_S3_S3_jjjjjjjjS3_S1_S2_
GPGPU-Sim PTX: __cudaRegisterFunction __nv_static_51__38_cuda_device_runtime_compute_70_cpp1_ii_8b1a5d37__Z16memcpy_3d_deviceImLi1ELi1ELi0EEvPKhPhT_S3_S3_S3_S3_S3_S3_jjjjjjjjS3_S1_S2_ : hostFun 0x0x408700, fat_cubin_handle = 2
Warning: cannot find deviceFun __nv_static_51__38_cuda_device_runtime_compute_70_cpp1_ii_8b1a5d37__Z16memcpy_3d_deviceImLi1ELi1ELi0EEvPKhPhT_S3_S3_S3_S3_S3_S3_jjjjjjjjS3_S1_S2_
GPGPU-Sim PTX: __cudaRegisterFunction __nv_static_51__38_cuda_device_runtime_compute_70_cpp1_ii_8b1a5d37__Z16memcpy_3d_deviceImLi1ELi0ELi1EEvPKhPhT_S3_S3_S3_S3_S3_S3_jjjjjjjjS3_S1_S2_ : hostFun 0x0x408990, fat_cubin_handle = 2
Warning: cannot find deviceFun __nv_static_51__38_cuda_device_runtime_compute_70_cpp1_ii_8b1a5d37__Z16memcpy_3d_deviceImLi1ELi0ELi1EEvPKhPhT_S3_S3_S3_S3_S3_S3_jjjjjjjjS3_S1_S2_
GPGPU-Sim PTX: __cudaRegisterFunction __nv_static_51__38_cuda_device_runtime_compute_70_cpp1_ii_8b1a5d37__Z16memcpy_3d_deviceImLi1ELi0ELi0EEvPKhPhT_S3_S3_S3_S3_S3_S3_jjjjjjjjS3_S1_S2_ : hostFun 0x0x408c20, fat_cubin_handle = 2
Warning: cannot find deviceFun __nv_static_51__38_cuda_device_runtime_compute_70_cpp1_ii_8b1a5d37__Z16memcpy_3d_deviceImLi1ELi0ELi0EEvPKhPhT_S3_S3_S3_S3_S3_S3_jjjjjjjjS3_S1_S2_
GPGPU-Sim PTX: __cudaRegisterFunction __nv_static_51__38_cuda_device_runtime_compute_70_cpp1_ii_8b1a5d37__Z16memcpy_3d_deviceImLi0ELi1ELi1EEvPKhPhT_S3_S3_S3_S3_S3_S3_jjjjjjjjS3_S1_S2_ : hostFun 0x0x408eb0, fat_cubin_handle = 2
Warning: cannot find deviceFun __nv_static_51__38_cuda_device_runtime_compute_70_cpp1_ii_8b1a5d37__Z16memcpy_3d_deviceImLi0ELi1ELi1EEvPKhPhT_S3_S3_S3_S3_S3_S3_jjjjjjjjS3_S1_S2_
GPGPU-Sim PTX: __cudaRegisterFunction __nv_static_51__38_cuda_device_runtime_compute_70_cpp1_ii_8b1a5d37__Z16memcpy_3d_deviceImLi0ELi1ELi0EEvPKhPhT_S3_S3_S3_S3_S3_S3_jjjjjjjjS3_S1_S2_ : hostFun 0x0x409140, fat_cubin_handle = 2
Warning: cannot find deviceFun __nv_static_51__38_cuda_device_runtime_compute_70_cpp1_ii_8b1a5d37__Z16memcpy_3d_deviceImLi0ELi1ELi0EEvPKhPhT_S3_S3_S3_S3_S3_S3_jjjjjjjjS3_S1_S2_
GPGPU-Sim PTX: __cudaRegisterFunction __nv_static_51__38_cuda_device_runtime_compute_70_cpp1_ii_8b1a5d37__Z16memcpy_3d_deviceImLi0ELi0ELi1EEvPKhPhT_S3_S3_S3_S3_S3_S3_jjjjjjjjS3_S1_S2_ : hostFun 0x0x4093d0, fat_cubin_handle = 2
Warning: cannot find deviceFun __nv_static_51__38_cuda_device_runtime_compute_70_cpp1_ii_8b1a5d37__Z16memcpy_3d_deviceImLi0ELi0ELi1EEvPKhPhT_S3_S3_S3_S3_S3_S3_jjjjjjjjS3_S1_S2_
GPGPU-Sim PTX: __cudaRegisterFunction __nv_static_51__38_cuda_device_runtime_compute_70_cpp1_ii_8b1a5d37__Z16memcpy_3d_deviceImLi0ELi0ELi0EEvPKhPhT_S3_S3_S3_S3_S3_S3_jjjjjjjjS3_S1_S2_ : hostFun 0x0x409660, fat_cubin_handle = 2
Warning: cannot find deviceFun __nv_static_51__38_cuda_device_runtime_compute_70_cpp1_ii_8b1a5d37__Z16memcpy_3d_deviceImLi0ELi0ELi0EEvPKhPhT_S3_S3_S3_S3_S3_S3_jjjjjjjjS3_S1_S2_
GPGPU-Sim PTX: __cudaRegisterFunction __nv_static_51__38_cuda_device_runtime_compute_70_cpp1_ii_8b1a5d37__Z16memcpy_3d_deviceIjLi1ELi1ELi1EEvPKhPhT_S3_S3_S3_S3_S3_S3_jjjjjjjjS3_S1_S2_ : hostFun 0x0x4098e0, fat_cubin_handle = 2
Warning: cannot find deviceFun __nv_static_51__38_cuda_device_runtime_compute_70_cpp1_ii_8b1a5d37__Z16memcpy_3d_deviceIjLi1ELi1ELi1EEvPKhPhT_S3_S3_S3_S3_S3_S3_jjjjjjjjS3_S1_S2_
GPGPU-Sim PTX: __cudaRegisterFunction __nv_static_51__38_cuda_device_runtime_compute_70_cpp1_ii_8b1a5d37__Z16memcpy_3d_deviceIjLi1ELi1ELi0EEvPKhPhT_S3_S3_S3_S3_S3_S3_jjjjjjjjS3_S1_S2_ : hostFun 0x0x409b60, fat_cubin_handle = 2
Warning: cannot find deviceFun __nv_static_51__38_cuda_device_runtime_compute_70_cpp1_ii_8b1a5d37__Z16memcpy_3d_deviceIjLi1ELi1ELi0EEvPKhPhT_S3_S3_S3_S3_S3_S3_jjjjjjjjS3_S1_S2_
GPGPU-Sim PTX: __cudaRegisterFunction __nv_static_51__38_cuda_device_runtime_compute_70_cpp1_ii_8b1a5d37__Z16memcpy_3d_deviceIjLi1ELi0ELi1EEvPKhPhT_S3_S3_S3_S3_S3_S3_jjjjjjjjS3_S1_S2_ : hostFun 0x0x409de0, fat_cubin_handle = 2
Warning: cannot find deviceFun __nv_static_51__38_cuda_device_runtime_compute_70_cpp1_ii_8b1a5d37__Z16memcpy_3d_deviceIjLi1ELi0ELi1EEvPKhPhT_S3_S3_S3_S3_S3_S3_jjjjjjjjS3_S1_S2_
GPGPU-Sim PTX: __cudaRegisterFunction __nv_static_51__38_cuda_device_runtime_compute_70_cpp1_ii_8b1a5d37__Z16memcpy_3d_deviceIjLi1ELi0ELi0EEvPKhPhT_S3_S3_S3_S3_S3_S3_jjjjjjjjS3_S1_S2_ : hostFun 0x0x40a060, fat_cubin_handle = 2
Warning: cannot find deviceFun __nv_static_51__38_cuda_device_runtime_compute_70_cpp1_ii_8b1a5d37__Z16memcpy_3d_deviceIjLi1ELi0ELi0EEvPKhPhT_S3_S3_S3_S3_S3_S3_jjjjjjjjS3_S1_S2_
GPGPU-Sim PTX: __cudaRegisterFunction __nv_static_51__38_cuda_device_runtime_compute_70_cpp1_ii_8b1a5d37__Z16memcpy_3d_deviceIjLi0ELi1ELi1EEvPKhPhT_S3_S3_S3_S3_S3_S3_jjjjjjjjS3_S1_S2_ : hostFun 0x0x40a2e0, fat_cubin_handle = 2
Warning: cannot find deviceFun __nv_static_51__38_cuda_device_runtime_compute_70_cpp1_ii_8b1a5d37__Z16memcpy_3d_deviceIjLi0ELi1ELi1EEvPKhPhT_S3_S3_S3_S3_S3_S3_jjjjjjjjS3_S1_S2_
GPGPU-Sim PTX: __cudaRegisterFunction __nv_static_51__38_cuda_device_runtime_compute_70_cpp1_ii_8b1a5d37__Z16memcpy_3d_deviceIjLi0ELi1ELi0EEvPKhPhT_S3_S3_S3_S3_S3_S3_jjjjjjjjS3_S1_S2_ : hostFun 0x0x40a560, fat_cubin_handle = 2
Warning: cannot find deviceFun __nv_static_51__38_cuda_device_runtime_compute_70_cpp1_ii_8b1a5d37__Z16memcpy_3d_deviceIjLi0ELi1ELi0EEvPKhPhT_S3_S3_S3_S3_S3_S3_jjjjjjjjS3_S1_S2_
GPGPU-Sim PTX: __cudaRegisterFunction __nv_static_51__38_cuda_device_runtime_compute_70_cpp1_ii_8b1a5d37__Z16memcpy_3d_deviceIjLi0ELi0ELi1EEvPKhPhT_S3_S3_S3_S3_S3_S3_jjjjjjjjS3_S1_S2_ : hostFun 0x0x40a7e0, fat_cubin_handle = 2
Warning: cannot find deviceFun __nv_static_51__38_cuda_device_runtime_compute_70_cpp1_ii_8b1a5d37__Z16memcpy_3d_deviceIjLi0ELi0ELi1EEvPKhPhT_S3_S3_S3_S3_S3_S3_jjjjjjjjS3_S1_S2_
GPGPU-Sim PTX: __cudaRegisterFunction __nv_static_51__38_cuda_device_runtime_compute_70_cpp1_ii_8b1a5d37__Z16memcpy_3d_deviceIjLi0ELi0ELi0EEvPKhPhT_S3_S3_S3_S3_S3_S3_jjjjjjjjS3_S1_S2_ : hostFun 0x0x40aa60, fat_cubin_handle = 2
Warning: cannot find deviceFun __nv_static_51__38_cuda_device_runtime_compute_70_cpp1_ii_8b1a5d37__Z16memcpy_3d_deviceIjLi0ELi0ELi0EEvPKhPhT_S3_S3_S3_S3_S3_S3_jjjjjjjjS3_S1_S2_
GPGPU-Sim PTX: __cudaRegisterFunction __nv_static_51__38_cuda_device_runtime_compute_70_cpp1_ii_8b1a5d37__Z16memset_3d_deviceImLi1ELi1ELi1EEvPhhjT_S1_S1_S1_S1_jjjjjjjS1_S0_ : hostFun 0x0x40ac80, fat_cubin_handle = 2
Warning: cannot find deviceFun __nv_static_51__38_cuda_device_runtime_compute_70_cpp1_ii_8b1a5d37__Z16memset_3d_deviceImLi1ELi1ELi1EEvPhhjT_S1_S1_S1_S1_jjjjjjjS1_S0_
GPGPU-Sim PTX: __cudaRegisterFunction __nv_static_51__38_cuda_device_runtime_compute_70_cpp1_ii_8b1a5d37__Z16memset_3d_deviceImLi1ELi1ELi0EEvPhhjT_S1_S1_S1_S1_jjjjjjjS1_S0_ : hostFun 0x0x40aea0, fat_cubin_handle = 2
Warning: cannot find deviceFun __nv_static_51__38_cuda_device_runtime_compute_70_cpp1_ii_8b1a5d37__Z16memset_3d_deviceImLi1ELi1ELi0EEvPhhjT_S1_S1_S1_S1_jjjjjjjS1_S0_
GPGPU-Sim PTX: __cudaRegisterFunction __nv_static_51__38_cuda_device_runtime_compute_70_cpp1_ii_8b1a5d37__Z16memset_3d_deviceImLi1ELi0ELi1EEvPhhjT_S1_S1_S1_S1_jjjjjjjS1_S0_ : hostFun 0x0x40b0c0, fat_cubin_handle = 2
Warning: cannot find deviceFun __nv_static_51__38_cuda_device_runtime_compute_70_cpp1_ii_8b1a5d37__Z16memset_3d_deviceImLi1ELi0ELi1EEvPhhjT_S1_S1_S1_S1_jjjjjjjS1_S0_
GPGPU-Sim PTX: __cudaRegisterFunction __nv_static_51__38_cuda_device_runtime_compute_70_cpp1_ii_8b1a5d37__Z16memset_3d_deviceImLi1ELi0ELi0EEvPhhjT_S1_S1_S1_S1_jjjjjjjS1_S0_ : hostFun 0x0x40b2e0, fat_cubin_handle = 2
Warning: cannot find deviceFun __nv_static_51__38_cuda_device_runtime_compute_70_cpp1_ii_8b1a5d37__Z16memset_3d_deviceImLi1ELi0ELi0EEvPhhjT_S1_S1_S1_S1_jjjjjjjS1_S0_
GPGPU-Sim PTX: __cudaRegisterFunction __nv_static_51__38_cuda_device_runtime_compute_70_cpp1_ii_8b1a5d37__Z16memset_3d_deviceImLi0ELi1ELi1EEvPhhjT_S1_S1_S1_S1_jjjjjjjS1_S0_ : hostFun 0x0x40b500, fat_cubin_handle = 2
Warning: cannot find deviceFun __nv_static_51__38_cuda_device_runtime_compute_70_cpp1_ii_8b1a5d37__Z16memset_3d_deviceImLi0ELi1ELi1EEvPhhjT_S1_S1_S1_S1_jjjjjjjS1_S0_
GPGPU-Sim PTX: __cudaRegisterFunction __nv_static_51__38_cuda_device_runtime_compute_70_cpp1_ii_8b1a5d37__Z16memset_3d_deviceImLi0ELi1ELi0EEvPhhjT_S1_S1_S1_S1_jjjjjjjS1_S0_ : hostFun 0x0x40b720, fat_cubin_handle = 2
Warning: cannot find deviceFun __nv_static_51__38_cuda_device_runtime_compute_70_cpp1_ii_8b1a5d37__Z16memset_3d_deviceImLi0ELi1ELi0EEvPhhjT_S1_S1_S1_S1_jjjjjjjS1_S0_
GPGPU-Sim PTX: __cudaRegisterFunction __nv_static_51__38_cuda_device_runtime_compute_70_cpp1_ii_8b1a5d37__Z16memset_3d_deviceImLi0ELi0ELi1EEvPhhjT_S1_S1_S1_S1_jjjjjjjS1_S0_ : hostFun 0x0x40b940, fat_cubin_handle = 2
Warning: cannot find deviceFun __nv_static_51__38_cuda_device_runtime_compute_70_cpp1_ii_8b1a5d37__Z16memset_3d_deviceImLi0ELi0ELi1EEvPhhjT_S1_S1_S1_S1_jjjjjjjS1_S0_
GPGPU-Sim PTX: __cudaRegisterFunction __nv_static_51__38_cuda_device_runtime_compute_70_cpp1_ii_8b1a5d37__Z16memset_3d_deviceImLi0ELi0ELi0EEvPhhjT_S1_S1_S1_S1_jjjjjjjS1_S0_ : hostFun 0x0x40bb60, fat_cubin_handle = 2
Warning: cannot find deviceFun __nv_static_51__38_cuda_device_runtime_compute_70_cpp1_ii_8b1a5d37__Z16memset_3d_deviceImLi0ELi0ELi0EEvPhhjT_S1_S1_S1_S1_jjjjjjjS1_S0_
GPGPU-Sim PTX: __cudaRegisterFunction __nv_static_51__38_cuda_device_runtime_compute_70_cpp1_ii_8b1a5d37__Z16memset_3d_deviceIjLi1ELi1ELi1EEvPhhjT_S1_S1_S1_S1_jjjjjjjS1_S0_ : hostFun 0x0x40bd80, fat_cubin_handle = 2
Warning: cannot find deviceFun __nv_static_51__38_cuda_device_runtime_compute_70_cpp1_ii_8b1a5d37__Z16memset_3d_deviceIjLi1ELi1ELi1EEvPhhjT_S1_S1_S1_S1_jjjjjjjS1_S0_
GPGPU-Sim PTX: __cudaRegisterFunction __nv_static_51__38_cuda_device_runtime_compute_70_cpp1_ii_8b1a5d37__Z16memset_3d_deviceIjLi1ELi1ELi0EEvPhhjT_S1_S1_S1_S1_jjjjjjjS1_S0_ : hostFun 0x0x40bfa0, fat_cubin_handle = 2
Warning: cannot find deviceFun __nv_static_51__38_cuda_device_runtime_compute_70_cpp1_ii_8b1a5d37__Z16memset_3d_deviceIjLi1ELi1ELi0EEvPhhjT_S1_S1_S1_S1_jjjjjjjS1_S0_
GPGPU-Sim PTX: __cudaRegisterFunction __nv_static_51__38_cuda_device_runtime_compute_70_cpp1_ii_8b1a5d37__Z16memset_3d_deviceIjLi1ELi0ELi1EEvPhhjT_S1_S1_S1_S1_jjjjjjjS1_S0_ : hostFun 0x0x40c1c0, fat_cubin_handle = 2
Warning: cannot find deviceFun __nv_static_51__38_cuda_device_runtime_compute_70_cpp1_ii_8b1a5d37__Z16memset_3d_deviceIjLi1ELi0ELi1EEvPhhjT_S1_S1_S1_S1_jjjjjjjS1_S0_
GPGPU-Sim PTX: __cudaRegisterFunction __nv_static_51__38_cuda_device_runtime_compute_70_cpp1_ii_8b1a5d37__Z16memset_3d_deviceIjLi1ELi0ELi0EEvPhhjT_S1_S1_S1_S1_jjjjjjjS1_S0_ : hostFun 0x0x40c3e0, fat_cubin_handle = 2
Warning: cannot find deviceFun __nv_static_51__38_cuda_device_runtime_compute_70_cpp1_ii_8b1a5d37__Z16memset_3d_deviceIjLi1ELi0ELi0EEvPhhjT_S1_S1_S1_S1_jjjjjjjS1_S0_
GPGPU-Sim PTX: __cudaRegisterFunction __nv_static_51__38_cuda_device_runtime_compute_70_cpp1_ii_8b1a5d37__Z16memset_3d_deviceIjLi0ELi1ELi1EEvPhhjT_S1_S1_S1_S1_jjjjjjjS1_S0_ : hostFun 0x0x40c600, fat_cubin_handle = 2
Warning: cannot find deviceFun __nv_static_51__38_cuda_device_runtime_compute_70_cpp1_ii_8b1a5d37__Z16memset_3d_deviceIjLi0ELi1ELi1EEvPhhjT_S1_S1_S1_S1_jjjjjjjS1_S0_
GPGPU-Sim PTX: __cudaRegisterFunction __nv_static_51__38_cuda_device_runtime_compute_70_cpp1_ii_8b1a5d37__Z16memset_3d_deviceIjLi0ELi1ELi0EEvPhhjT_S1_S1_S1_S1_jjjjjjjS1_S0_ : hostFun 0x0x40c820, fat_cubin_handle = 2
Warning: cannot find deviceFun __nv_static_51__38_cuda_device_runtime_compute_70_cpp1_ii_8b1a5d37__Z16memset_3d_deviceIjLi0ELi1ELi0EEvPhhjT_S1_S1_S1_S1_jjjjjjjS1_S0_
GPGPU-Sim PTX: __cudaRegisterFunction __nv_static_51__38_cuda_device_runtime_compute_70_cpp1_ii_8b1a5d37__Z16memset_3d_deviceIjLi0ELi0ELi1EEvPhhjT_S1_S1_S1_S1_jjjjjjjS1_S0_ : hostFun 0x0x40ca40, fat_cubin_handle = 2
Warning: cannot find deviceFun __nv_static_51__38_cuda_device_runtime_compute_70_cpp1_ii_8b1a5d37__Z16memset_3d_deviceIjLi0ELi0ELi1EEvPhhjT_S1_S1_S1_S1_jjjjjjjS1_S0_
GPGPU-Sim PTX: __cudaRegisterFunction __nv_static_51__38_cuda_device_runtime_compute_70_cpp1_ii_8b1a5d37__Z16memset_3d_deviceIjLi0ELi0ELi0EEvPhhjT_S1_S1_S1_S1_jjjjjjjS1_S0_ : hostFun 0x0x40cc60, fat_cubin_handle = 2
Warning: cannot find deviceFun __nv_static_51__38_cuda_device_runtime_compute_70_cpp1_ii_8b1a5d37__Z16memset_3d_deviceIjLi0ELi0ELi0EEvPhhjT_S1_S1_S1_S1_jjjjjjjS1_S0_
GPGPU-Sim PTX: __cudaRegisterVar: hostVar = 0x6a62c0; deviceAddress = __nv_static_51__38_cuda_device_runtime_compute_70_cpp1_ii_8b1a5d37_set_kernel32; deviceName = __nv_static_51__38_cuda_device_runtime_compute_70_cpp1_ii_8b1a5d37_set_kernel32
GPGPU-Sim PTX: __cudaRegisterVar: Registering const memory space of 64 bytes
GPGPU-Sim PTX registering constant __nv_static_51__38_cuda_device_runtime_compute_70_cpp1_ii_8b1a5d37_set_kernel32 (64 bytes) to name mapping
GPGPU-Sim PTX: __cudaRegisterVar: hostVar = 0x6a6300; deviceAddress = __nv_static_51__38_cuda_device_runtime_compute_70_cpp1_ii_8b1a5d37_set_kernel64; deviceName = __nv_static_51__38_cuda_device_runtime_compute_70_cpp1_ii_8b1a5d37_set_kernel64
GPGPU-Sim PTX: __cudaRegisterVar: Registering const memory space of 64 bytes
GPGPU-Sim PTX registering constant __nv_static_51__38_cuda_device_runtime_compute_70_cpp1_ii_8b1a5d37_set_kernel64 (64 bytes) to name mapping
GPGPU-Sim PTX: __cudaRegisterVar: hostVar = 0x6a6340; deviceAddress = __nv_static_51__38_cuda_device_runtime_compute_70_cpp1_ii_8b1a5d37_cpy_kernel32; deviceName = __nv_static_51__38_cuda_device_runtime_compute_70_cpp1_ii_8b1a5d37_cpy_kernel32
GPGPU-Sim PTX: __cudaRegisterVar: Registering const memory space of 64 bytes
GPGPU-Sim PTX registering constant __nv_static_51__38_cuda_device_runtime_compute_70_cpp1_ii_8b1a5d37_cpy_kernel32 (64 bytes) to name mapping
GPGPU-Sim PTX: __cudaRegisterVar: hostVar = 0x6a6380; deviceAddress = __nv_static_51__38_cuda_device_runtime_compute_70_cpp1_ii_8b1a5d37_cpy_kernel64; deviceName = __nv_static_51__38_cuda_device_runtime_compute_70_cpp1_ii_8b1a5d37_cpy_kernel64
GPGPU-Sim PTX: __cudaRegisterVar: Registering const memory space of 64 bytes
GPGPU-Sim PTX registering constant __nv_static_51__38_cuda_device_runtime_compute_70_cpp1_ii_8b1a5d37_cpy_kernel64 (64 bytes) to name mapping
GPGPU-Sim PTX: __cudaRegisterVar: hostVar = 0x6a5560; deviceAddress = __nv_static_51__38_cuda_device_runtime_compute_70_cpp1_ii_8b1a5d37_cudartErrorTableArr; deviceName = __nv_static_51__38_cuda_device_runtime_compute_70_cpp1_ii_8b1a5d37_cudartErrorTableArr
GPGPU-Sim PTX: __cudaRegisterVar: Registering const memory space of 1992 bytes
GPGPU-Sim PTX registering global __nv_static_51__38_cuda_device_runtime_compute_70_cpp1_ii_8b1a5d37_cudartErrorTableArr hostVar to name mapping
GPGPU-Sim PTX: __cudaRegisterVar: hostVar = 0x6a62a0; deviceAddress = cudartErrorTable; deviceName = cudartErrorTable
GPGPU-Sim PTX: __cudaRegisterVar: Registering const memory space of 8 bytes
GPGPU-Sim PTX registering global cudartErrorTable hostVar to name mapping
GPGPU-Sim PTX: __cudaRegisterVar: hostVar = 0x40fb60; deviceAddress = cudartErrorTableEntryCount; deviceName = cudartErrorTableEntryCount
GPGPU-Sim PTX: __cudaRegisterVar: Registering const memory space of 4 bytes
GPGPU-Sim PTX registering global cudartErrorTableEntryCount hostVar to name mapping
GPGPU-Sim PTX: __cudaRegisterVar: hostVar = 0x40fb80; deviceAddress = __nv_static_51__38_cuda_device_runtime_compute_70_cpp1_ii_8b1a5d37_cudartErrorCnpMapArr; deviceName = __nv_static_51__38_cuda_device_runtime_compute_70_cpp1_ii_8b1a5d37_cudartErrorCnpMapArr
GPGPU-Sim PTX: __cudaRegisterVar: Registering const memory space of 104 bytes
GPGPU-Sim PTX registering global __nv_static_51__38_cuda_device_runtime_compute_70_cpp1_ii_8b1a5d37_cudartErrorCnpMapArr hostVar to name mapping
GPGPU-Sim PTX: __cudaRegisterVar: hostVar = 0x6a62a8; deviceAddress = cudartErrorCnpMap; deviceName = cudartErrorCnpMap
GPGPU-Sim PTX: __cudaRegisterVar: Registering const memory space of 8 bytes
GPGPU-Sim PTX registering global cudartErrorCnpMap hostVar to name mapping
GPGPU-Sim PTX: __cudaRegisterVar: hostVar = 0x40fb64; deviceAddress = cudartErrorCnpMapEntryCount; deviceName = cudartErrorCnpMapEntryCount
GPGPU-Sim PTX: __cudaRegisterVar: Registering const memory space of 4 bytes
GPGPU-Sim PTX registering global cudartErrorCnpMapEntryCount hostVar to name mapping
GPGPU-Sim PTX: __cudaRegisterVar: hostVar = 0x6a62b0; deviceAddress = __CNPRT_VERSION_NUMBER__; deviceName = __CNPRT_VERSION_NUMBER__
GPGPU-Sim PTX: __cudaRegisterVar: Registering const memory space of 4 bytes
GPGPU-Sim PTX registering global __CNPRT_VERSION_NUMBER__ hostVar to name mapping
GPGPU-Sim PTX: Setting up arguments for 432 bytes starting at 0x7ffc6db8c960..

GPGPU-Sim PTX: cudaLaunch for 0x0x402cdc (mode=performance simulation) on stream 0
GPGPU-Sim PTX: finding reconvergence points for '_ZN7cutlass4gemm11gemm_kernelINS0_4GemmINS0_11SgemmTraitsILNS_12MatrixLayout4KindE1ELS5_0ENS_5ShapeILi8ELi128ELi128ELi1EEENS0_13LinearScalingIfNS0_19FragmentMultiplyAddIfEEEENS6_ILi8ELi8ELi8ELi1EEELi1ELi1EiNS0_11SgemmConfigIS7_SC_Li1ELi1EEENS0_28SimplifiedGemmEpilogueTraitsISE_SB_iNS0_24GemmEpilogueTraitsHelperISE_SB_iEEEEEEEEEEvNT_6ParamsE'...
GPGPU-Sim PTX: Finding dominators for '_ZN7cutlass4gemm11gemm_kernelINS0_4GemmINS0_11SgemmTraitsILNS_12MatrixLayout4KindE1ELS5_0ENS_5ShapeILi8ELi128ELi128ELi1EEENS0_13LinearScalingIfNS0_19FragmentMultiplyAddIfEEEENS6_ILi8ELi8ELi8ELi1EEELi1ELi1EiNS0_11SgemmConfigIS7_SC_Li1ELi1EEENS0_28SimplifiedGemmEpilogueTraitsISE_SB_iNS0_24GemmEpilogueTraitsHelperISE_SB_iEEEEEEEEEEvNT_6ParamsE'...
GPGPU-Sim PTX: Finding immediate dominators for '_ZN7cutlass4gemm11gemm_kernelINS0_4GemmINS0_11SgemmTraitsILNS_12MatrixLayout4KindE1ELS5_0ENS_5ShapeILi8ELi128ELi128ELi1EEENS0_13LinearScalingIfNS0_19FragmentMultiplyAddIfEEEENS6_ILi8ELi8ELi8ELi1EEELi1ELi1EiNS0_11SgemmConfigIS7_SC_Li1ELi1EEENS0_28SimplifiedGemmEpilogueTraitsISE_SB_iNS0_24GemmEpilogueTraitsHelperISE_SB_iEEEEEEEEEEvNT_6ParamsE'...
GPGPU-Sim PTX: Finding postdominators for '_ZN7cutlass4gemm11gemm_kernelINS0_4GemmINS0_11SgemmTraitsILNS_12MatrixLayout4KindE1ELS5_0ENS_5ShapeILi8ELi128ELi128ELi1EEENS0_13LinearScalingIfNS0_19FragmentMultiplyAddIfEEEENS6_ILi8ELi8ELi8ELi1EEELi1ELi1EiNS0_11SgemmConfigIS7_SC_Li1ELi1EEENS0_28SimplifiedGemmEpilogueTraitsISE_SB_iNS0_24GemmEpilogueTraitsHelperISE_SB_iEEEEEEEEEEvNT_6ParamsE'...
GPGPU-Sim PTX: Finding immediate postdominators for '_ZN7cutlass4gemm11gemm_kernelINS0_4GemmINS0_11SgemmTraitsILNS_12MatrixLayout4KindE1ELS5_0ENS_5ShapeILi8ELi128ELi128ELi1EEENS0_13LinearScalingIfNS0_19FragmentMultiplyAddIfEEEENS6_ILi8ELi8ELi8ELi1EEELi1ELi1EiNS0_11SgemmConfigIS7_SC_Li1ELi1EEENS0_28SimplifiedGemmEpilogueTraitsISE_SB_iNS0_24GemmEpilogueTraitsHelperISE_SB_iEEEEEEEEEEvNT_6ParamsE'...
GPGPU-Sim PTX: pre-decoding instructions for '_ZN7cutlass4gemm11gemm_kernelINS0_4GemmINS0_11SgemmTraitsILNS_12MatrixLayout4KindE1ELS5_0ENS_5ShapeILi8ELi128ELi128ELi1EEENS0_13LinearScalingIfNS0_19FragmentMultiplyAddIfEEEENS6_ILi8ELi8ELi8ELi1EEELi1ELi1EiNS0_11SgemmConfigIS7_SC_Li1ELi1EEENS0_28SimplifiedGemmEpilogueTraitsISE_SB_iNS0_24GemmEpilogueTraitsHelperISE_SB_iEEEEEEEEEEvNT_6ParamsE'...
GPGPU-Sim PTX: reconvergence points for _ZN7cutlass4gemm11gemm_kernelINS0_4GemmINS0_11SgemmTraitsILNS_12MatrixLayout4KindE1ELS5_0ENS_5ShapeILi8ELi128ELi128ELi1EEENS0_13LinearScalingIfNS0_19FragmentMultiplyAddIfEEEENS6_ILi8ELi8ELi8ELi1EEELi1ELi1EiNS0_11SgemmConfigIS7_SC_Li1ELi1EEENS0_28SimplifiedGemmEpilogueTraitsISE_SB_iNS0_24GemmEpilogueTraitsHelperISE_SB_iEEEEEEEEEEvNT_6ParamsE...
GPGPU-Sim PTX:  1 (potential) branch divergence @  PC=0x190 (cutlass-test.1.sm_70.ptx:93) @%p11 bra BB0_2;
GPGPU-Sim PTX:    immediate post dominator      @  PC=0x208 (cutlass-test.1.sm_70.ptx:131) mov.u32 %r858, %ctaid.y;
GPGPU-Sim PTX:  2 (potential) branch divergence @  PC=0x2c0 (cutlass-test.1.sm_70.ptx:154) @%p11 bra BB0_4;
GPGPU-Sim PTX:    immediate post dominator      @  PC=0x338 (cutlass-test.1.sm_70.ptx:192) setp.lt.s32%p22, %r23, 8;
GPGPU-Sim PTX:  3 (potential) branch divergence @  PC=0x340 (cutlass-test.1.sm_70.ptx:193) @%p22 bra BB0_7;
GPGPU-Sim PTX:    immediate post dominator      @  PC=0x418 (cutlass-test.1.sm_70.ptx:227) shl.b64 %rd123, %rd5, 2;
GPGPU-Sim PTX:  4 (potential) branch divergence @  PC=0x348 (cutlass-test.1.sm_70.ptx:194) bra.uni BB0_5;
GPGPU-Sim PTX:    immediate post dominator      @  PC=0x3b0 (cutlass-test.1.sm_70.ptx:211) setp.gt.s32%p23, %r23, 8;
GPGPU-Sim PTX:  5 (potential) branch divergence @  PC=0x3a8 (cutlass-test.1.sm_70.ptx:208) bra.uni BB0_8;
GPGPU-Sim PTX:    immediate post dominator      @  PC=0x418 (cutlass-test.1.sm_70.ptx:227) shl.b64 %rd123, %rd5, 2;
GPGPU-Sim PTX:  6 (potential) branch divergence @  PC=0x3b8 (cutlass-test.1.sm_70.ptx:212) @%p23 bra BB0_8;
GPGPU-Sim PTX:    immediate post dominator      @  PC=0x418 (cutlass-test.1.sm_70.ptx:227) shl.b64 %rd123, %rd5, 2;
GPGPU-Sim PTX:  7 (potential) branch divergence @  PC=0x448 (cutlass-test.1.sm_70.ptx:233) @!%p26 bra BB0_10;
GPGPU-Sim PTX:    immediate post dominator      @  PC=0x460 (cutlass-test.1.sm_70.ptx:240) and.b32 %r886, %r1391, 2;
GPGPU-Sim PTX:  8 (potential) branch divergence @  PC=0x450 (cutlass-test.1.sm_70.ptx:234) bra.uni BB0_9;
GPGPU-Sim PTX:    immediate post dominator      @  PC=0x458 (cutlass-test.1.sm_70.ptx:237) ld.global.u32 %r1509, [%rd7];
GPGPU-Sim PTX:  9 (potential) branch divergence @  PC=0x478 (cutlass-test.1.sm_70.ptx:243) @%p27 bra BB0_12;
GPGPU-Sim PTX:    immediate post dominator      @  PC=0x488 (cutlass-test.1.sm_70.ptx:248) and.b32 %r888, %r1391, 4;
GPGPU-Sim PTX: 10 (potential) branch divergence @  PC=0x4a0 (cutlass-test.1.sm_70.ptx:251) @%p28 bra BB0_14;
GPGPU-Sim PTX:    immediate post dominator      @  PC=0x4b0 (cutlass-test.1.sm_70.ptx:256) and.b32 %r890, %r1391, 8;
GPGPU-Sim PTX: 11 (potential) branch divergence @  PC=0x4c8 (cutlass-test.1.sm_70.ptx:259) @%p29 bra BB0_16;
GPGPU-Sim PTX:    immediate post dominator      @  PC=0x4d8 (cutlass-test.1.sm_70.ptx:264) shl.b64 %rd124, %rd6, 2;
GPGPU-Sim PTX: 12 (potential) branch divergence @  PC=0x520 (cutlass-test.1.sm_70.ptx:273) @!%p30 bra BB0_18;
GPGPU-Sim PTX:    immediate post dominator      @  PC=0x538 (cutlass-test.1.sm_70.ptx:280) and.b32 %r894, %r1390, 2;
GPGPU-Sim PTX: 13 (potential) branch divergence @  PC=0x528 (cutlass-test.1.sm_70.ptx:274) bra.uni BB0_17;
GPGPU-Sim PTX:    immediate post dominator      @  PC=0x530 (cutlass-test.1.sm_70.ptx:277) ld.global.u32 %r1513, [%rd8];
GPGPU-Sim PTX: 14 (potential) branch divergence @  PC=0x550 (cutlass-test.1.sm_70.ptx:283) @%p31 bra BB0_20;
GPGPU-Sim PTX:    immediate post dominator      @  PC=0x560 (cutlass-test.1.sm_70.ptx:288) and.b32 %r896, %r1390, 4;
GPGPU-Sim PTX: 15 (potential) branch divergence @  PC=0x578 (cutlass-test.1.sm_70.ptx:291) @%p32 bra BB0_22;
GPGPU-Sim PTX:    immediate post dominator      @  PC=0x588 (cutlass-test.1.sm_70.ptx:296) and.b32 %r898, %r1390, 8;
GPGPU-Sim PTX: 16 (potential) branch divergence @  PC=0x598 (cutlass-test.1.sm_70.ptx:298) @%p33 bra BB0_24;
GPGPU-Sim PTX:    immediate post dominator      @  PC=0x5a8 (cutlass-test.1.sm_70.ptx:303) shl.b32 %r899, %r28, 2;
GPGPU-Sim PTX: 17 (potential) branch divergence @  PC=0x670 (cutlass-test.1.sm_70.ptx:328) @%p34 bra BB0_26;
GPGPU-Sim PTX:    immediate post dominator      @  PC=0x6e8 (cutlass-test.1.sm_70.ptx:366) shr.u32 %r909, %r18, 4;
GPGPU-Sim PTX: 18 (potential) branch divergence @  PC=0x738 (cutlass-test.1.sm_70.ptx:376) @%p35 bra BB0_28;
GPGPU-Sim PTX:    immediate post dominator      @  PC=0x7b0 (cutlass-test.1.sm_70.ptx:414) cvt.u64.u32%rd145, %r28;
GPGPU-Sim PTX: 19 (potential) branch divergence @  PC=0x848 (cutlass-test.1.sm_70.ptx:433) @%p36 bra BB0_29;
GPGPU-Sim PTX:    immediate post dominator      @  PC=0x2590 (cutlass-test.1.sm_70.ptx:1406) setp.lt.s32%p52, %r1599, -7;
GPGPU-Sim PTX: 20 (potential) branch divergence @  PC=0xa68 (cutlass-test.1.sm_70.ptx:504) @%p37 bra BB0_33;
GPGPU-Sim PTX:    immediate post dominator      @  PC=0xb38 (cutlass-test.1.sm_70.ptx:533) and.b32 %r1096, %r1391, 1;
GPGPU-Sim PTX: 21 (potential) branch divergence @  PC=0xb48 (cutlass-test.1.sm_70.ptx:535) @!%p39 bra BB0_35;
GPGPU-Sim PTX:    immediate post dominator      @  PC=0xb60 (cutlass-test.1.sm_70.ptx:542) and.b32 %r1097, %r1391, 2;
GPGPU-Sim PTX: 22 (potential) branch divergence @  PC=0xb50 (cutlass-test.1.sm_70.ptx:536) bra.uni BB0_34;
GPGPU-Sim PTX:    immediate post dominator      @  PC=0xb58 (cutlass-test.1.sm_70.ptx:539) ld.global.u32 %r1509, [%rd475];
GPGPU-Sim PTX: 23 (potential) branch divergence @  PC=0xb70 (cutlass-test.1.sm_70.ptx:544) @%p40 bra BB0_37;
GPGPU-Sim PTX:    immediate post dominator      @  PC=0xb80 (cutlass-test.1.sm_70.ptx:549) and.b32 %r1098, %r1391, 4;
GPGPU-Sim PTX: 24 (potential) branch divergence @  PC=0xb90 (cutlass-test.1.sm_70.ptx:551) @%p41 bra BB0_39;
GPGPU-Sim PTX:    immediate post dominator      @  PC=0xba0 (cutlass-test.1.sm_70.ptx:556) and.b32 %r1099, %r1391, 8;
GPGPU-Sim PTX: 25 (potential) branch divergence @  PC=0xbb0 (cutlass-test.1.sm_70.ptx:558) @%p42 bra BB0_41;
GPGPU-Sim PTX:    immediate post dominator      @  PC=0xbc0 (cutlass-test.1.sm_70.ptx:563) and.b32 %r1100, %r1390, 1;
GPGPU-Sim PTX: 26 (potential) branch divergence @  PC=0xbd0 (cutlass-test.1.sm_70.ptx:565) @!%p43 bra BB0_43;
GPGPU-Sim PTX:    immediate post dominator      @  PC=0xbe8 (cutlass-test.1.sm_70.ptx:572) and.b32 %r1101, %r1390, 2;
GPGPU-Sim PTX: 27 (potential) branch divergence @  PC=0xbd8 (cutlass-test.1.sm_70.ptx:566) bra.uni BB0_42;
GPGPU-Sim PTX:    immediate post dominator      @  PC=0xbe0 (cutlass-test.1.sm_70.ptx:569) ld.global.u32 %r1513, [%rd474];
GPGPU-Sim PTX: 28 (potential) branch divergence @  PC=0xbf8 (cutlass-test.1.sm_70.ptx:574) @%p44 bra BB0_45;
GPGPU-Sim PTX:    immediate post dominator      @  PC=0xc08 (cutlass-test.1.sm_70.ptx:579) and.b32 %r1102, %r1390, 4;
GPGPU-Sim PTX: 29 (potential) branch divergence @  PC=0xc18 (cutlass-test.1.sm_70.ptx:581) @%p45 bra BB0_47;
GPGPU-Sim PTX:    immediate post dominator      @  PC=0xc28 (cutlass-test.1.sm_70.ptx:586) and.b32 %r1103, %r1390, 8;
GPGPU-Sim PTX: 30 (potential) branch divergence @  PC=0xc38 (cutlass-test.1.sm_70.ptx:588) @%p46 bra BB0_49;
GPGPU-Sim PTX:    immediate post dominator      @  PC=0xc48 (cutlass-test.1.sm_70.ptx:593) mov.b32 %f307, %r1524;
GPGPU-Sim PTX: 31 (potential) branch divergence @  PC=0x2380 (cutlass-test.1.sm_70.ptx:1336) @%p51 bra BB0_31;
GPGPU-Sim PTX:    immediate post dominator      @  PC=0x2388 (cutlass-test.1.sm_70.ptx:1337) bra.uni BB0_50;
GPGPU-Sim PTX: 32 (potential) branch divergence @  PC=0x2388 (cutlass-test.1.sm_70.ptx:1337) bra.uni BB0_50;
GPGPU-Sim PTX:    immediate post dominator      @  PC=0x2590 (cutlass-test.1.sm_70.ptx:1406) setp.lt.s32%p52, %r1599, -7;
GPGPU-Sim PTX: 33 (potential) branch divergence @  PC=0x2598 (cutlass-test.1.sm_70.ptx:1407) @%p52 bra BB0_52;
GPGPU-Sim PTX:    immediate post dominator      @  PC=0x3d00 (cutlass-test.1.sm_70.ptx:2160) mov.u32 %r1378, %tid.x;
GPGPU-Sim PTX: 34 (potential) branch divergence @  PC=0x3cf8 (cutlass-test.1.sm_70.ptx:2157) @%p53 bra BB0_51;
GPGPU-Sim PTX:    immediate post dominator      @  PC=0x3d00 (cutlass-test.1.sm_70.ptx:2160) mov.u32 %r1378, %tid.x;
GPGPU-Sim PTX: 35 (potential) branch divergence @  PC=0x3de8 (cutlass-test.1.sm_70.ptx:2189) @%p54 bra BB0_317;
GPGPU-Sim PTX:    immediate post dominator      @  PC=0x7550 (cutlass-test.1.sm_70.ptx:4916) ret;
GPGPU-Sim PTX: 36 (potential) branch divergence @  PC=0x3df0 (cutlass-test.1.sm_70.ptx:2190) bra.uni BB0_53;
GPGPU-Sim PTX:    immediate post dominator      @  PC=0x5278 (cutlass-test.1.sm_70.ptx:3197) setp.lt.s32%p55, %r644, 2080;
GPGPU-Sim PTX: 37 (potential) branch divergence @  PC=0x3e00 (cutlass-test.1.sm_70.ptx:2194) @%p443 bra BB0_319;
GPGPU-Sim PTX:    immediate post dominator      @  PC=0x3e78 (cutlass-test.1.sm_70.ptx:2232) mov.u32 %r1386, %tid.x;
GPGPU-Sim PTX: 38 (potential) branch divergence @  PC=0x3ea8 (cutlass-test.1.sm_70.ptx:2238) @%p444 bra BB0_321;
GPGPU-Sim PTX:    immediate post dominator      @  PC=0x3f20 (cutlass-test.1.sm_70.ptx:2276) mov.u32 %r1387, _ZN7cutlass4gemm11gemm_kernelINS0_4GemmINS0_11SgemmTraitsILNS_12MatrixLayout4KindE1ELS5_0ENS_5ShapeILi8ELi128ELi128ELi1EEENS0_13LinearScalingIfNS0_19FragmentMultiplyAddIfEEEENS6_ILi8ELi8ELi8ELi1EEELi1ELi1EiNS0_11SgemmConfigIS7_SC_Li1ELi1EEENS0_28SimplifiedGemmEpilogueTraitsISE_SB_iNS0_24GemmEpilogueTraitsHelperISE_SB_iEEEEEEEEEEvNT_6ParamsE$__cuda_local_var_31507_57_non_const_shared_storage;
GPGPU-Sim PTX: 39 (potential) branch divergence @  PC=0x3fc0 (cutlass-test.1.sm_70.ptx:2296) @!%p446 bra BB0_323;
GPGPU-Sim PTX:    immediate post dominator      @  PC=0x3fe8 (cutlass-test.1.sm_70.ptx:2305) setp.lt.s32%p447, %r642, %r847;
GPGPU-Sim PTX: 40 (potential) branch divergence @  PC=0x3fc8 (cutlass-test.1.sm_70.ptx:2297) bra.uni BB0_322;
GPGPU-Sim PTX:    immediate post dominator      @  PC=0x3fd0 (cutlass-test.1.sm_70.ptx:2300) ld.shared.f32 %f1955, [%r810];
GPGPU-Sim PTX: 41 (potential) branch divergence @  PC=0x4030 (cutlass-test.1.sm_70.ptx:2314) @!%p449 bra BB0_325;
GPGPU-Sim PTX:    immediate post dominator      @  PC=0x4058 (cutlass-test.1.sm_70.ptx:2323) add.s32 %r1303, %r642, 32;
GPGPU-Sim PTX: 42 (potential) branch divergence @  PC=0x4038 (cutlass-test.1.sm_70.ptx:2315) bra.uni BB0_324;
GPGPU-Sim PTX:    immediate post dominator      @  PC=0x4040 (cutlass-test.1.sm_70.ptx:2318) shl.b64 %rd337, %rd15, 2;
GPGPU-Sim PTX: 43 (potential) branch divergence @  PC=0x4070 (cutlass-test.1.sm_70.ptx:2326) @!%p452 bra BB0_327;
GPGPU-Sim PTX:    immediate post dominator      @  PC=0x4098 (cutlass-test.1.sm_70.ptx:2335) add.s32 %r1304, %r642, 64;
GPGPU-Sim PTX: 44 (potential) branch divergence @  PC=0x4078 (cutlass-test.1.sm_70.ptx:2327) bra.uni BB0_326;
GPGPU-Sim PTX:    immediate post dominator      @  PC=0x4080 (cutlass-test.1.sm_70.ptx:2330) shl.b64 %rd339, %rd15, 2;
GPGPU-Sim PTX: 45 (potential) branch divergence @  PC=0x40b0 (cutlass-test.1.sm_70.ptx:2338) @!%p455 bra BB0_329;
GPGPU-Sim PTX:    immediate post dominator      @  PC=0x40d8 (cutlass-test.1.sm_70.ptx:2347) cvt.s64.s32%rd81, %r841;
GPGPU-Sim PTX: 46 (potential) branch divergence @  PC=0x40b8 (cutlass-test.1.sm_70.ptx:2339) bra.uni BB0_328;
GPGPU-Sim PTX:    immediate post dominator      @  PC=0x40c0 (cutlass-test.1.sm_70.ptx:2342) shl.b64 %rd341, %rd15, 2;
GPGPU-Sim PTX: 47 (potential) branch divergence @  PC=0x4110 (cutlass-test.1.sm_70.ptx:2354) @!%p458 bra BB0_331;
GPGPU-Sim PTX:    immediate post dominator      @  PC=0x4128 (cutlass-test.1.sm_70.ptx:2361) and.pred %p461, %p447, %p457;
GPGPU-Sim PTX: 48 (potential) branch divergence @  PC=0x4118 (cutlass-test.1.sm_70.ptx:2355) bra.uni BB0_330;
GPGPU-Sim PTX:    immediate post dominator      @  PC=0x4120 (cutlass-test.1.sm_70.ptx:2358) st.global.f32 [%rd83], %f205;
GPGPU-Sim PTX: 49 (potential) branch divergence @  PC=0x4130 (cutlass-test.1.sm_70.ptx:2362) @!%p461 bra BB0_333;
GPGPU-Sim PTX:    immediate post dominator      @  PC=0x4150 (cutlass-test.1.sm_70.ptx:2370) and.pred %p464, %p450, %p457;
GPGPU-Sim PTX: 50 (potential) branch divergence @  PC=0x4138 (cutlass-test.1.sm_70.ptx:2363) bra.uni BB0_332;
GPGPU-Sim PTX:    immediate post dominator      @  PC=0x4140 (cutlass-test.1.sm_70.ptx:2366) add.s64 %rd345, %rd343, %rd4;
GPGPU-Sim PTX: 51 (potential) branch divergence @  PC=0x4158 (cutlass-test.1.sm_70.ptx:2371) @!%p464 bra BB0_335;
GPGPU-Sim PTX:    immediate post dominator      @  PC=0x4178 (cutlass-test.1.sm_70.ptx:2379) and.pred %p467, %p453, %p457;
GPGPU-Sim PTX: 52 (potential) branch divergence @  PC=0x4160 (cutlass-test.1.sm_70.ptx:2372) bra.uni BB0_334;
GPGPU-Sim PTX:    immediate post dominator      @  PC=0x4168 (cutlass-test.1.sm_70.ptx:2375) add.s64 %rd347, %rd343, %rd4;
GPGPU-Sim PTX: 53 (potential) branch divergence @  PC=0x4180 (cutlass-test.1.sm_70.ptx:2380) @!%p467 bra BB0_337;
GPGPU-Sim PTX:    immediate post dominator      @  PC=0x41a0 (cutlass-test.1.sm_70.ptx:2388) cvt.s64.s32%rd84, %r840;
GPGPU-Sim PTX: 54 (potential) branch divergence @  PC=0x4188 (cutlass-test.1.sm_70.ptx:2381) bra.uni BB0_336;
GPGPU-Sim PTX:    immediate post dominator      @  PC=0x4190 (cutlass-test.1.sm_70.ptx:2384) add.s64 %rd349, %rd343, %rd4;
GPGPU-Sim PTX: 55 (potential) branch divergence @  PC=0x4220 (cutlass-test.1.sm_70.ptx:2404) @!%p470 bra BB0_339;
GPGPU-Sim PTX:    immediate post dominator      @  PC=0x4258 (cutlass-test.1.sm_70.ptx:2415) and.pred %p473, %p447, %p468;
GPGPU-Sim PTX: 56 (potential) branch divergence @  PC=0x4228 (cutlass-test.1.sm_70.ptx:2405) bra.uni BB0_338;
GPGPU-Sim PTX:    immediate post dominator      @  PC=0x4230 (cutlass-test.1.sm_70.ptx:2408) ld.shared.f32 %f1957, [%r810];
GPGPU-Sim PTX: 57 (potential) branch divergence @  PC=0x4298 (cutlass-test.1.sm_70.ptx:2423) @!%p473 bra BB0_341;
GPGPU-Sim PTX:    immediate post dominator      @  PC=0x42c0 (cutlass-test.1.sm_70.ptx:2432) and.pred %p476, %p450, %p468;
GPGPU-Sim PTX: 58 (potential) branch divergence @  PC=0x42a0 (cutlass-test.1.sm_70.ptx:2424) bra.uni BB0_340;
GPGPU-Sim PTX:    immediate post dominator      @  PC=0x42a8 (cutlass-test.1.sm_70.ptx:2427) shl.b64 %rd352, %rd85, 2;
GPGPU-Sim PTX: 59 (potential) branch divergence @  PC=0x42c8 (cutlass-test.1.sm_70.ptx:2433) @!%p476 bra BB0_343;
GPGPU-Sim PTX:    immediate post dominator      @  PC=0x42f0 (cutlass-test.1.sm_70.ptx:2442) and.pred %p479, %p453, %p468;
GPGPU-Sim PTX: 60 (potential) branch divergence @  PC=0x42d0 (cutlass-test.1.sm_70.ptx:2434) bra.uni BB0_342;
GPGPU-Sim PTX:    immediate post dominator      @  PC=0x42d8 (cutlass-test.1.sm_70.ptx:2437) shl.b64 %rd354, %rd85, 2;
GPGPU-Sim PTX: 61 (potential) branch divergence @  PC=0x42f8 (cutlass-test.1.sm_70.ptx:2443) @!%p479 bra BB0_345;
GPGPU-Sim PTX:    immediate post dominator      @  PC=0x4320 (cutlass-test.1.sm_70.ptx:2452) add.s64 %rd86, %rd85, %rd81;
GPGPU-Sim PTX: 62 (potential) branch divergence @  PC=0x4300 (cutlass-test.1.sm_70.ptx:2444) bra.uni BB0_344;
GPGPU-Sim PTX:    immediate post dominator      @  PC=0x4308 (cutlass-test.1.sm_70.ptx:2447) shl.b64 %rd356, %rd85, 2;
GPGPU-Sim PTX: 63 (potential) branch divergence @  PC=0x4350 (cutlass-test.1.sm_70.ptx:2458) @!%p482 bra BB0_347;
GPGPU-Sim PTX:    immediate post dominator      @  PC=0x4368 (cutlass-test.1.sm_70.ptx:2465) and.pred %p485, %p447, %p481;
GPGPU-Sim PTX: 64 (potential) branch divergence @  PC=0x4358 (cutlass-test.1.sm_70.ptx:2459) bra.uni BB0_346;
GPGPU-Sim PTX:    immediate post dominator      @  PC=0x4360 (cutlass-test.1.sm_70.ptx:2462) st.global.f32 [%rd87], %f219;
GPGPU-Sim PTX: 65 (potential) branch divergence @  PC=0x4370 (cutlass-test.1.sm_70.ptx:2466) @!%p485 bra BB0_349;
GPGPU-Sim PTX:    immediate post dominator      @  PC=0x4390 (cutlass-test.1.sm_70.ptx:2474) and.pred %p488, %p450, %p481;
GPGPU-Sim PTX: 66 (potential) branch divergence @  PC=0x4378 (cutlass-test.1.sm_70.ptx:2467) bra.uni BB0_348;
GPGPU-Sim PTX:    immediate post dominator      @  PC=0x4380 (cutlass-test.1.sm_70.ptx:2470) add.s64 %rd360, %rd358, %rd4;
GPGPU-Sim PTX: 67 (potential) branch divergence @  PC=0x4398 (cutlass-test.1.sm_70.ptx:2475) @!%p488 bra BB0_351;
GPGPU-Sim PTX:    immediate post dominator      @  PC=0x43b8 (cutlass-test.1.sm_70.ptx:2483) and.pred %p491, %p453, %p481;
GPGPU-Sim PTX: 68 (potential) branch divergence @  PC=0x43a0 (cutlass-test.1.sm_70.ptx:2476) bra.uni BB0_350;
GPGPU-Sim PTX:    immediate post dominator      @  PC=0x43a8 (cutlass-test.1.sm_70.ptx:2479) add.s64 %rd362, %rd358, %rd4;
GPGPU-Sim PTX: 69 (potential) branch divergence @  PC=0x43c0 (cutlass-test.1.sm_70.ptx:2484) @!%p491 bra BB0_353;
GPGPU-Sim PTX:    immediate post dominator      @  PC=0x43e0 (cutlass-test.1.sm_70.ptx:2492) add.s64 %rd88, %rd86, %rd84;
GPGPU-Sim PTX: 70 (potential) branch divergence @  PC=0x43c8 (cutlass-test.1.sm_70.ptx:2485) bra.uni BB0_352;
GPGPU-Sim PTX:    immediate post dominator      @  PC=0x43d0 (cutlass-test.1.sm_70.ptx:2488) add.s64 %rd364, %rd358, %rd4;
GPGPU-Sim PTX: 71 (potential) branch divergence @  PC=0x4458 (cutlass-test.1.sm_70.ptx:2507) @!%p494 bra BB0_355;
GPGPU-Sim PTX:    immediate post dominator      @  PC=0x4490 (cutlass-test.1.sm_70.ptx:2518) and.pred %p497, %p447, %p492;
GPGPU-Sim PTX: 72 (potential) branch divergence @  PC=0x4460 (cutlass-test.1.sm_70.ptx:2508) bra.uni BB0_354;
GPGPU-Sim PTX:    immediate post dominator      @  PC=0x4468 (cutlass-test.1.sm_70.ptx:2511) ld.shared.f32 %f1959, [%r810];
GPGPU-Sim PTX: 73 (potential) branch divergence @  PC=0x44d0 (cutlass-test.1.sm_70.ptx:2526) @!%p497 bra BB0_357;
GPGPU-Sim PTX:    immediate post dominator      @  PC=0x44f8 (cutlass-test.1.sm_70.ptx:2535) and.pred %p500, %p450, %p492;
GPGPU-Sim PTX: 74 (potential) branch divergence @  PC=0x44d8 (cutlass-test.1.sm_70.ptx:2527) bra.uni BB0_356;
GPGPU-Sim PTX:    immediate post dominator      @  PC=0x44e0 (cutlass-test.1.sm_70.ptx:2530) shl.b64 %rd367, %rd88, 2;
GPGPU-Sim PTX: 75 (potential) branch divergence @  PC=0x4500 (cutlass-test.1.sm_70.ptx:2536) @!%p500 bra BB0_359;
GPGPU-Sim PTX:    immediate post dominator      @  PC=0x4528 (cutlass-test.1.sm_70.ptx:2545) and.pred %p503, %p453, %p492;
GPGPU-Sim PTX: 76 (potential) branch divergence @  PC=0x4508 (cutlass-test.1.sm_70.ptx:2537) bra.uni BB0_358;
GPGPU-Sim PTX:    immediate post dominator      @  PC=0x4510 (cutlass-test.1.sm_70.ptx:2540) shl.b64 %rd369, %rd88, 2;
GPGPU-Sim PTX: 77 (potential) branch divergence @  PC=0x4530 (cutlass-test.1.sm_70.ptx:2546) @!%p503 bra BB0_361;
GPGPU-Sim PTX:    immediate post dominator      @  PC=0x4558 (cutlass-test.1.sm_70.ptx:2555) add.s64 %rd89, %rd88, %rd81;
GPGPU-Sim PTX: 78 (potential) branch divergence @  PC=0x4538 (cutlass-test.1.sm_70.ptx:2547) bra.uni BB0_360;
GPGPU-Sim PTX:    immediate post dominator      @  PC=0x4540 (cutlass-test.1.sm_70.ptx:2550) shl.b64 %rd371, %rd88, 2;
GPGPU-Sim PTX: 79 (potential) branch divergence @  PC=0x4588 (cutlass-test.1.sm_70.ptx:2561) @!%p506 bra BB0_363;
GPGPU-Sim PTX:    immediate post dominator      @  PC=0x45a0 (cutlass-test.1.sm_70.ptx:2568) and.pred %p509, %p447, %p505;
GPGPU-Sim PTX: 80 (potential) branch divergence @  PC=0x4590 (cutlass-test.1.sm_70.ptx:2562) bra.uni BB0_362;
GPGPU-Sim PTX:    immediate post dominator      @  PC=0x4598 (cutlass-test.1.sm_70.ptx:2565) st.global.f32 [%rd90], %f233;
GPGPU-Sim PTX: 81 (potential) branch divergence @  PC=0x45a8 (cutlass-test.1.sm_70.ptx:2569) @!%p509 bra BB0_365;
GPGPU-Sim PTX:    immediate post dominator      @  PC=0x45c8 (cutlass-test.1.sm_70.ptx:2577) and.pred %p512, %p450, %p505;
GPGPU-Sim PTX: 82 (potential) branch divergence @  PC=0x45b0 (cutlass-test.1.sm_70.ptx:2570) bra.uni BB0_364;
GPGPU-Sim PTX:    immediate post dominator      @  PC=0x45b8 (cutlass-test.1.sm_70.ptx:2573) add.s64 %rd375, %rd373, %rd4;
GPGPU-Sim PTX: 83 (potential) branch divergence @  PC=0x45d0 (cutlass-test.1.sm_70.ptx:2578) @!%p512 bra BB0_367;
GPGPU-Sim PTX:    immediate post dominator      @  PC=0x45f0 (cutlass-test.1.sm_70.ptx:2586) and.pred %p515, %p453, %p505;
GPGPU-Sim PTX: 84 (potential) branch divergence @  PC=0x45d8 (cutlass-test.1.sm_70.ptx:2579) bra.uni BB0_366;
GPGPU-Sim PTX:    immediate post dominator      @  PC=0x45e0 (cutlass-test.1.sm_70.ptx:2582) add.s64 %rd377, %rd373, %rd4;
GPGPU-Sim PTX: 85 (potential) branch divergence @  PC=0x45f8 (cutlass-test.1.sm_70.ptx:2587) @!%p515 bra BB0_369;
GPGPU-Sim PTX:    immediate post dominator      @  PC=0x4618 (cutlass-test.1.sm_70.ptx:2595) add.s64 %rd91, %rd89, %rd84;
GPGPU-Sim PTX: 86 (potential) branch divergence @  PC=0x4600 (cutlass-test.1.sm_70.ptx:2588) bra.uni BB0_368;
GPGPU-Sim PTX:    immediate post dominator      @  PC=0x4608 (cutlass-test.1.sm_70.ptx:2591) add.s64 %rd379, %rd373, %rd4;
GPGPU-Sim PTX: 87 (potential) branch divergence @  PC=0x4690 (cutlass-test.1.sm_70.ptx:2610) @!%p518 bra BB0_371;
GPGPU-Sim PTX:    immediate post dominator      @  PC=0x46c8 (cutlass-test.1.sm_70.ptx:2621) and.pred %p521, %p447, %p516;
GPGPU-Sim PTX: 88 (potential) branch divergence @  PC=0x4698 (cutlass-test.1.sm_70.ptx:2611) bra.uni BB0_370;
GPGPU-Sim PTX:    immediate post dominator      @  PC=0x46a0 (cutlass-test.1.sm_70.ptx:2614) ld.shared.f32 %f1961, [%r810];
GPGPU-Sim PTX: 89 (potential) branch divergence @  PC=0x4708 (cutlass-test.1.sm_70.ptx:2629) @!%p521 bra BB0_373;
GPGPU-Sim PTX:    immediate post dominator      @  PC=0x4730 (cutlass-test.1.sm_70.ptx:2638) and.pred %p524, %p450, %p516;
GPGPU-Sim PTX: 90 (potential) branch divergence @  PC=0x4710 (cutlass-test.1.sm_70.ptx:2630) bra.uni BB0_372;
GPGPU-Sim PTX:    immediate post dominator      @  PC=0x4718 (cutlass-test.1.sm_70.ptx:2633) shl.b64 %rd382, %rd91, 2;
GPGPU-Sim PTX: 91 (potential) branch divergence @  PC=0x4738 (cutlass-test.1.sm_70.ptx:2639) @!%p524 bra BB0_375;
GPGPU-Sim PTX:    immediate post dominator      @  PC=0x4760 (cutlass-test.1.sm_70.ptx:2648) and.pred %p527, %p453, %p516;
GPGPU-Sim PTX: 92 (potential) branch divergence @  PC=0x4740 (cutlass-test.1.sm_70.ptx:2640) bra.uni BB0_374;
GPGPU-Sim PTX:    immediate post dominator      @  PC=0x4748 (cutlass-test.1.sm_70.ptx:2643) shl.b64 %rd384, %rd91, 2;
GPGPU-Sim PTX: 93 (potential) branch divergence @  PC=0x4768 (cutlass-test.1.sm_70.ptx:2649) @!%p527 bra BB0_377;
GPGPU-Sim PTX:    immediate post dominator      @  PC=0x4790 (cutlass-test.1.sm_70.ptx:2658) add.s64 %rd92, %rd91, %rd81;
GPGPU-Sim PTX: 94 (potential) branch divergence @  PC=0x4770 (cutlass-test.1.sm_70.ptx:2650) bra.uni BB0_376;
GPGPU-Sim PTX:    immediate post dominator      @  PC=0x4778 (cutlass-test.1.sm_70.ptx:2653) shl.b64 %rd386, %rd91, 2;
GPGPU-Sim PTX: 95 (potential) branch divergence @  PC=0x47c0 (cutlass-test.1.sm_70.ptx:2664) @!%p530 bra BB0_379;
GPGPU-Sim PTX:    immediate post dominator      @  PC=0x47d8 (cutlass-test.1.sm_70.ptx:2671) and.pred %p533, %p447, %p529;
GPGPU-Sim PTX: 96 (potential) branch divergence @  PC=0x47c8 (cutlass-test.1.sm_70.ptx:2665) bra.uni BB0_378;
GPGPU-Sim PTX:    immediate post dominator      @  PC=0x47d0 (cutlass-test.1.sm_70.ptx:2668) st.global.f32 [%rd93], %f247;
GPGPU-Sim PTX: 97 (potential) branch divergence @  PC=0x47e0 (cutlass-test.1.sm_70.ptx:2672) @!%p533 bra BB0_381;
GPGPU-Sim PTX:    immediate post dominator      @  PC=0x4800 (cutlass-test.1.sm_70.ptx:2680) and.pred %p536, %p450, %p529;
GPGPU-Sim PTX: 98 (potential) branch divergence @  PC=0x47e8 (cutlass-test.1.sm_70.ptx:2673) bra.uni BB0_380;
GPGPU-Sim PTX:    immediate post dominator      @  PC=0x47f0 (cutlass-test.1.sm_70.ptx:2676) add.s64 %rd390, %rd388, %rd4;
GPGPU-Sim PTX: 99 (potential) branch divergence @  PC=0x4808 (cutlass-test.1.sm_70.ptx:2681) @!%p536 bra BB0_383;
GPGPU-Sim PTX:    immediate post dominator      @  PC=0x4828 (cutlass-test.1.sm_70.ptx:2689) and.pred %p539, %p453, %p529;
GPGPU-Sim PTX: 100 (potential) branch divergence @  PC=0x4810 (cutlass-test.1.sm_70.ptx:2682) bra.uni BB0_382;
GPGPU-Sim PTX:    immediate post dominator      @  PC=0x4818 (cutlass-test.1.sm_70.ptx:2685) add.s64 %rd392, %rd388, %rd4;
GPGPU-Sim PTX: 101 (potential) branch divergence @  PC=0x4830 (cutlass-test.1.sm_70.ptx:2690) @!%p539 bra BB0_385;
GPGPU-Sim PTX:    immediate post dominator      @  PC=0x4850 (cutlass-test.1.sm_70.ptx:2698) ld.param.u32 %r1389, [_ZN7cutlass4gemm11gemm_kernelINS0_4GemmINS0_11SgemmTraitsILNS_12MatrixLayout4KindE1ELS5_0ENS_5ShapeILi8ELi128ELi128ELi1EEENS0_13LinearScalingIfNS0_19FragmentMultiplyAddIfEEEENS6_ILi8ELi8ELi8ELi1EEELi1ELi1EiNS0_11SgemmConfigIS7_SC_Li1ELi1EEENS0_28SimplifiedGemmEpilogueTraitsISE_SB_iNS0_24GemmEpilogueTraitsHelperISE_SB_iEEEEEEEEEEvNT_6ParamsE_param_0+272];
GPGPU-Sim PTX: 102 (potential) branch divergence @  PC=0x4838 (cutlass-test.1.sm_70.ptx:2691) bra.uni BB0_384;
GPGPU-Sim PTX:    immediate post dominator      @  PC=0x4840 (cutlass-test.1.sm_70.ptx:2694) add.s64 %rd394, %rd388, %rd4;
GPGPU-Sim PTX: 103 (potential) branch divergence @  PC=0x48b0 (cutlass-test.1.sm_70.ptx:2710) @%p443 bra BB0_387;
GPGPU-Sim PTX:    immediate post dominator      @  PC=0x4928 (cutlass-test.1.sm_70.ptx:2748) @%p444 bra BB0_389;
GPGPU-Sim PTX: 104 (potential) branch divergence @  PC=0x4928 (cutlass-test.1.sm_70.ptx:2748) @%p444 bra BB0_389;
GPGPU-Sim PTX:    immediate post dominator      @  PC=0x49a0 (cutlass-test.1.sm_70.ptx:2786) bar.sync 0;
GPGPU-Sim PTX: 105 (potential) branch divergence @  PC=0x4a08 (cutlass-test.1.sm_70.ptx:2799) @!%p544 bra BB0_391;
GPGPU-Sim PTX:    immediate post dominator      @  PC=0x4a40 (cutlass-test.1.sm_70.ptx:2810) and.pred %p547, %p447, %p542;
GPGPU-Sim PTX: 106 (potential) branch divergence @  PC=0x4a10 (cutlass-test.1.sm_70.ptx:2800) bra.uni BB0_390;
GPGPU-Sim PTX:    immediate post dominator      @  PC=0x4a18 (cutlass-test.1.sm_70.ptx:2803) ld.shared.f32 %f1963, [%r810];
GPGPU-Sim PTX: 107 (potential) branch divergence @  PC=0x4a80 (cutlass-test.1.sm_70.ptx:2818) @!%p547 bra BB0_393;
GPGPU-Sim PTX:    immediate post dominator      @  PC=0x4aa8 (cutlass-test.1.sm_70.ptx:2827) and.pred %p550, %p450, %p542;
GPGPU-Sim PTX: 108 (potential) branch divergence @  PC=0x4a88 (cutlass-test.1.sm_70.ptx:2819) bra.uni BB0_392;
GPGPU-Sim PTX:    immediate post dominator      @  PC=0x4a90 (cutlass-test.1.sm_70.ptx:2822) shl.b64 %rd411, %rd94, 2;
GPGPU-Sim PTX: 109 (potential) branch divergence @  PC=0x4ab0 (cutlass-test.1.sm_70.ptx:2828) @!%p550 bra BB0_395;
GPGPU-Sim PTX:    immediate post dominator      @  PC=0x4ad8 (cutlass-test.1.sm_70.ptx:2837) and.pred %p553, %p453, %p542;
GPGPU-Sim PTX: 110 (potential) branch divergence @  PC=0x4ab8 (cutlass-test.1.sm_70.ptx:2829) bra.uni BB0_394;
GPGPU-Sim PTX:    immediate post dominator      @  PC=0x4ac0 (cutlass-test.1.sm_70.ptx:2832) shl.b64 %rd413, %rd94, 2;
GPGPU-Sim PTX: 111 (potential) branch divergence @  PC=0x4ae0 (cutlass-test.1.sm_70.ptx:2838) @!%p553 bra BB0_397;
GPGPU-Sim PTX:    immediate post dominator      @  PC=0x4b08 (cutlass-test.1.sm_70.ptx:2847) add.s64 %rd95, %rd94, %rd81;
GPGPU-Sim PTX: 112 (potential) branch divergence @  PC=0x4ae8 (cutlass-test.1.sm_70.ptx:2839) bra.uni BB0_396;
GPGPU-Sim PTX:    immediate post dominator      @  PC=0x4af0 (cutlass-test.1.sm_70.ptx:2842) shl.b64 %rd415, %rd94, 2;
GPGPU-Sim PTX: 113 (potential) branch divergence @  PC=0x4b38 (cutlass-test.1.sm_70.ptx:2853) @!%p556 bra BB0_399;
GPGPU-Sim PTX:    immediate post dominator      @  PC=0x4b50 (cutlass-test.1.sm_70.ptx:2860) and.pred %p559, %p447, %p555;
GPGPU-Sim PTX: 114 (potential) branch divergence @  PC=0x4b40 (cutlass-test.1.sm_70.ptx:2854) bra.uni BB0_398;
GPGPU-Sim PTX:    immediate post dominator      @  PC=0x4b48 (cutlass-test.1.sm_70.ptx:2857) st.global.f32 [%rd96], %f261;
GPGPU-Sim PTX: 115 (potential) branch divergence @  PC=0x4b58 (cutlass-test.1.sm_70.ptx:2861) @!%p559 bra BB0_401;
GPGPU-Sim PTX:    immediate post dominator      @  PC=0x4b78 (cutlass-test.1.sm_70.ptx:2869) and.pred %p562, %p450, %p555;
GPGPU-Sim PTX: 116 (potential) branch divergence @  PC=0x4b60 (cutlass-test.1.sm_70.ptx:2862) bra.uni BB0_400;
GPGPU-Sim PTX:    immediate post dominator      @  PC=0x4b68 (cutlass-test.1.sm_70.ptx:2865) add.s64 %rd419, %rd417, %rd4;
GPGPU-Sim PTX: 117 (potential) branch divergence @  PC=0x4b80 (cutlass-test.1.sm_70.ptx:2870) @!%p562 bra BB0_403;
GPGPU-Sim PTX:    immediate post dominator      @  PC=0x4ba0 (cutlass-test.1.sm_70.ptx:2878) and.pred %p565, %p453, %p555;
GPGPU-Sim PTX: 118 (potential) branch divergence @  PC=0x4b88 (cutlass-test.1.sm_70.ptx:2871) bra.uni BB0_402;
[...]
RTWc_limit_alone = 0 

Commands details: 
total_CMD = 70861 
n_nop = 70819 
Read = 40 
Write = 0 
L2_Alloc = 0 
L2_WB = 0 
n_act = 2 
n_pre = 0 
n_ref = 0 
n_req = 40 
total_req = 40 

Dual Bus Interface Util: 
issued_total_row = 2 
issued_total_col = 40 
Row_Bus_Util =  0.000028 
CoL_Bus_Util = 0.000564 
Either_Row_CoL_Bus_Util = 0.000593 
Issued_on_Two_Bus_Simul_Util = 0.000000 
issued_two_Eff = 0.000000 
queue_avg = 0.002089 


dram_util_bins: 0 0 0 0 0 0 0 0 0 0
dram_eff_bins: 0 0 0 0 0 0 0 0 0 0
mrqq: max=3 avg=0.0020886
Memory Partition 6: 
Cache L2_bank_012:
MSHR contents

Cache L2_bank_013:
MSHR contents

In Dram Latency Queue (total = 0): 
DRAM[6]: 16 bks, busW=4 BL=8 CL=16, tRRD=8 tCCD=2, tRCD=16 tRAS=37 tRP=16 tRC=52
n_cmd=70861 n_nop=70819 n_act=2 n_pre=0 n_ref_event=0 n_req=40 n_rd=40 n_rd_L2_A=0 n_write=0 n_wr_bk=0 bw_util=0.001129
n_activity=312 dram_eff=0.2564
bk0: 20a 70805i bk1: 20a 70804i bk2: 0a 70860i bk3: 0a 70860i bk4: 0a 70860i bk5: 0a 70861i bk6: 0a 70861i bk7: 0a 70861i bk8: 0a 70861i bk9: 0a 70861i bk10: 0a 70861i bk11: 0a 70861i bk12: 0a 70861i bk13: 0a 70861i bk14: 0a 70861i bk15: 0a 70862i 

------------------------------------------------------------------------

Row_Buffer_Locality = 0.950000
Row_Buffer_Locality_read = 0.950000
Row_Buffer_Locality_write = -nan
Bank_Level_Parallism = 1.000000
Bank_Level_Parallism_Col = 1.000000
Bank_Level_Parallism_Ready = 1.000000
write_to_read_ratio_blp_rw_average = 0.000000
GrpLevelPara = 1.000000 

BW Util details:
bwutil = 0.001129 
total_CMD = 70861 
util_bw = 80 
Wasted_Col = 92 
Wasted_Row = 0 
Idle = 70689 

BW Util Bottlenecks: 
RCDc_limit = 32 
RCDWRc_limit = 0 
WTRc_limit = 0 
RTWc_limit = 0 
CCDLc_limit = 60 
rwq = 0 
CCDLc_limit_alone = 60 
WTRc_limit_alone = 0 
RTWc_limit_alone = 0 

Commands details: 
total_CMD = 70861 
n_nop = 70819 
Read = 40 
Write = 0 
L2_Alloc = 0 
L2_WB = 0 
n_act = 2 
n_pre = 0 
n_ref = 0 
n_req = 40 
total_req = 40 

Dual Bus Interface Util: 
issued_total_row = 2 
issued_total_col = 40 
Row_Bus_Util =  0.000028 
CoL_Bus_Util = 0.000564 
Either_Row_CoL_Bus_Util = 0.000593 
Issued_on_Two_Bus_Simul_Util = 0.000000 
issued_two_Eff = 0.000000 
queue_avg = 0.002032 


dram_util_bins: 0 0 0 0 0 0 0 0 0 0
dram_eff_bins: 0 0 0 0 0 0 0 0 0 0
mrqq: max=3 avg=0.00203215
Memory Partition 7: 
Cache L2_bank_014:
MSHR contents

Cache L2_bank_015:
MSHR contents

In Dram Latency Queue (total = 0): 
DRAM[7]: 16 bks, busW=4 BL=8 CL=16, tRRD=8 tCCD=2, tRCD=16 tRAS=37 tRP=16 tRC=52
n_cmd=70861 n_nop=70819 n_act=2 n_pre=0 n_ref_event=0 n_req=40 n_rd=40 n_rd_L2_A=0 n_write=0 n_wr_bk=0 bw_util=0.001129
n_activity=312 dram_eff=0.2564
bk0: 20a 70805i bk1: 20a 70803i bk2: 0a 70860i bk3: 0a 70860i bk4: 0a 70860i bk5: 0a 70861i bk6: 0a 70861i bk7: 0a 70861i bk8: 0a 70861i bk9: 0a 70861i bk10: 0a 70861i bk11: 0a 70861i bk12: 0a 70861i bk13: 0a 70861i bk14: 0a 70861i bk15: 0a 70862i 

------------------------------------------------------------------------

Row_Buffer_Locality = 0.950000
Row_Buffer_Locality_read = 0.950000
Row_Buffer_Locality_write = -nan
Bank_Level_Parallism = 1.000000
Bank_Level_Parallism_Col = 1.000000
Bank_Level_Parallism_Ready = 1.000000
write_to_read_ratio_blp_rw_average = 0.000000
GrpLevelPara = 1.000000 

BW Util details:
bwutil = 0.001129 
total_CMD = 70861 
util_bw = 80 
Wasted_Col = 92 
Wasted_Row = 0 
Idle = 70689 

BW Util Bottlenecks: 
RCDc_limit = 32 
RCDWRc_limit = 0 
WTRc_limit = 0 
RTWc_limit = 0 
CCDLc_limit = 60 
rwq = 0 
CCDLc_limit_alone = 60 
WTRc_limit_alone = 0 
RTWc_limit_alone = 0 

Commands details: 
total_CMD = 70861 
n_nop = 70819 
Read = 40 
Write = 0 
L2_Alloc = 0 
L2_WB = 0 
n_act = 2 
n_pre = 0 
n_ref = 0 
n_req = 40 
total_req = 40 

Dual Bus Interface Util: 
issued_total_row = 2 
issued_total_col = 40 
Row_Bus_Util =  0.000028 
CoL_Bus_Util = 0.000564 
Either_Row_CoL_Bus_Util = 0.000593 
Issued_on_Two_Bus_Simul_Util = 0.000000 
issued_two_Eff = 0.000000 
queue_avg = 0.002018 


dram_util_bins: 0 0 0 0 0 0 0 0 0 0
dram_eff_bins: 0 0 0 0 0 0 0 0 0 0
mrqq: max=3 avg=0.00201804
Memory Partition 8: 
Cache L2_bank_016:
MSHR contents

Cache L2_bank_017:
MSHR contents

In Dram Latency Queue (total = 0): 
DRAM[8]: 16 bks, busW=4 BL=8 CL=16, tRRD=8 tCCD=2, tRCD=16 tRAS=37 tRP=16 tRC=52
n_cmd=70861 n_nop=70823 n_act=2 n_pre=0 n_ref_event=0 n_req=36 n_rd=36 n_rd_L2_A=0 n_write=0 n_wr_bk=0 bw_util=0.001016
n_activity=286 dram_eff=0.2517
bk0: 20a 70805i bk1: 16a 70812i bk2: 0a 70860i bk3: 0a 70860i bk4: 0a 70860i bk5: 0a 70860i bk6: 0a 70860i bk7: 0a 70860i bk8: 0a 70860i bk9: 0a 70861i bk10: 0a 70861i bk11: 0a 70862i bk12: 0a 70862i bk13: 0a 70862i bk14: 0a 70862i bk15: 0a 70862i 

------------------------------------------------------------------------

Row_Buffer_Locality = 0.944444
Row_Buffer_Locality_read = 0.944444
Row_Buffer_Locality_write = -nan
Bank_Level_Parallism = 1.000000
Bank_Level_Parallism_Col = 1.000000
Bank_Level_Parallism_Ready = 1.000000
write_to_read_ratio_blp_rw_average = 0.000000
GrpLevelPara = 1.000000 

BW Util details:
bwutil = 0.001016 
total_CMD = 70861 
util_bw = 72 
Wasted_Col = 86 
Wasted_Row = 0 
Idle = 70703 

BW Util Bottlenecks: 
RCDc_limit = 32 
RCDWRc_limit = 0 
WTRc_limit = 0 
RTWc_limit = 0 
CCDLc_limit = 54 
rwq = 0 
CCDLc_limit_alone = 54 
WTRc_limit_alone = 0 
RTWc_limit_alone = 0 

Commands details: 
total_CMD = 70861 
n_nop = 70823 
Read = 36 
Write = 0 
L2_Alloc = 0 
L2_WB = 0 
n_act = 2 
n_pre = 0 
n_ref = 0 
n_req = 36 
total_req = 36 

Dual Bus Interface Util: 
issued_total_row = 2 
issued_total_col = 36 
Row_Bus_Util =  0.000028 
CoL_Bus_Util = 0.000508 
Either_Row_CoL_Bus_Util = 0.000536 
Issued_on_Two_Bus_Simul_Util = 0.000000 
issued_two_Eff = 0.000000 
queue_avg = 0.002018 


dram_util_bins: 0 0 0 0 0 0 0 0 0 0
dram_eff_bins: 0 0 0 0 0 0 0 0 0 0
mrqq: max=3 avg=0.00201804
Memory Partition 9: 
Cache L2_bank_018:
MSHR contents

Cache L2_bank_019:
MSHR contents

In Dram Latency Queue (total = 0): 
DRAM[9]: 16 bks, busW=4 BL=8 CL=16, tRRD=8 tCCD=2, tRCD=16 tRAS=37 tRP=16 tRC=52
n_cmd=70861 n_nop=70823 n_act=2 n_pre=0 n_ref_event=0 n_req=36 n_rd=36 n_rd_L2_A=0 n_write=0 n_wr_bk=0 bw_util=0.001016
n_activity=286 dram_eff=0.2517
bk0: 20a 70803i bk1: 16a 70812i bk2: 0a 70860i bk3: 0a 70860i bk4: 0a 70860i bk5: 0a 70861i bk6: 0a 70861i bk7: 0a 70861i bk8: 0a 70861i bk9: 0a 70861i bk10: 0a 70861i bk11: 0a 70861i bk12: 0a 70861i bk13: 0a 70861i bk14: 0a 70861i bk15: 0a 70862i 

------------------------------------------------------------------------

Row_Buffer_Locality = 0.944444
Row_Buffer_Locality_read = 0.944444
Row_Buffer_Locality_write = -nan
Bank_Level_Parallism = 1.000000
Bank_Level_Parallism_Col = 1.000000
Bank_Level_Parallism_Ready = 1.000000
write_to_read_ratio_blp_rw_average = 0.000000
GrpLevelPara = 1.000000 

BW Util details:
bwutil = 0.001016 
total_CMD = 70861 
util_bw = 72 
Wasted_Col = 86 
Wasted_Row = 0 
Idle = 70703 

BW Util Bottlenecks: 
RCDc_limit = 32 
RCDWRc_limit = 0 
WTRc_limit = 0 
RTWc_limit = 0 
CCDLc_limit = 54 
rwq = 0 
CCDLc_limit_alone = 54 
WTRc_limit_alone = 0 
RTWc_limit_alone = 0 

Commands details: 
total_CMD = 70861 
n_nop = 70823 
Read = 36 
Write = 0 
L2_Alloc = 0 
L2_WB = 0 
n_act = 2 
n_pre = 0 
n_ref = 0 
n_req = 36 
total_req = 36 

Dual Bus Interface Util: 
issued_total_row = 2 
issued_total_col = 36 
Row_Bus_Util =  0.000028 
CoL_Bus_Util = 0.000508 
Either_Row_CoL_Bus_Util = 0.000536 
Issued_on_Two_Bus_Simul_Util = 0.000000 
issued_two_Eff = 0.000000 
queue_avg = 0.002046 


dram_util_bins: 0 0 0 0 0 0 0 0 0 0
dram_eff_bins: 0 0 0 0 0 0 0 0 0 0
mrqq: max=3 avg=0.00204626
Memory Partition 10: 
Cache L2_bank_020:
MSHR contents

Cache L2_bank_021:
MSHR contents

In Dram Latency Queue (total = 0): 
DRAM[10]: 16 bks, busW=4 BL=8 CL=16, tRRD=8 tCCD=2, tRCD=16 tRAS=37 tRP=16 tRC=52
n_cmd=70861 n_nop=70831 n_act=2 n_pre=0 n_ref_event=0 n_req=28 n_rd=28 n_rd_L2_A=0 n_write=0 n_wr_bk=0 bw_util=0.0007903
n_activity=234 dram_eff=0.2393
bk0: 16a 70813i bk1: 12a 70820i bk2: 0a 70860i bk3: 0a 70860i bk4: 0a 70860i bk5: 0a 70861i bk6: 0a 70861i bk7: 0a 70861i bk8: 0a 70861i bk9: 0a 70861i bk10: 0a 70861i bk11: 0a 70861i bk12: 0a 70861i bk13: 0a 70861i bk14: 0a 70861i bk15: 0a 70862i 

------------------------------------------------------------------------

Row_Buffer_Locality = 0.928571
Row_Buffer_Locality_read = 0.928571
Row_Buffer_Locality_write = -nan
Bank_Level_Parallism = 1.000000
Bank_Level_Parallism_Col = 1.000000
Bank_Level_Parallism_Ready = 1.000000
write_to_read_ratio_blp_rw_average = 0.000000
GrpLevelPara = 1.000000 

BW Util details:
bwutil = 0.000790 
total_CMD = 70861 
util_bw = 56 
Wasted_Col = 74 
Wasted_Row = 0 
Idle = 70731 

BW Util Bottlenecks: 
RCDc_limit = 32 
RCDWRc_limit = 0 
WTRc_limit = 0 
RTWc_limit = 0 
CCDLc_limit = 42 
rwq = 0 
CCDLc_limit_alone = 42 
WTRc_limit_alone = 0 
RTWc_limit_alone = 0 

Commands details: 
total_CMD = 70861 
n_nop = 70831 
Read = 28 
Write = 0 
L2_Alloc = 0 
L2_WB = 0 
n_act = 2 
n_pre = 0 
n_ref = 0 
n_req = 28 
total_req = 28 

Dual Bus Interface Util: 
issued_total_row = 2 
issued_total_col = 28 
Row_Bus_Util =  0.000028 
CoL_Bus_Util = 0.000395 
Either_Row_CoL_Bus_Util = 0.000423 
Issued_on_Two_Bus_Simul_Util = 0.000000 
issued_two_Eff = 0.000000 
queue_avg = 0.001820 


dram_util_bins: 0 0 0 0 0 0 0 0 0 0
dram_eff_bins: 0 0 0 0 0 0 0 0 0 0
mrqq: max=3 avg=0.00182047
Memory Partition 11: 
Cache L2_bank_022:
MSHR contents

Cache L2_bank_023:
MSHR contents

In Dram Latency Queue (total = 0): 
DRAM[11]: 16 bks, busW=4 BL=8 CL=16, tRRD=8 tCCD=2, tRCD=16 tRAS=37 tRP=16 tRC=52
n_cmd=70861 n_nop=70831 n_act=2 n_pre=0 n_ref_event=0 n_req=28 n_rd=28 n_rd_L2_A=0 n_write=0 n_wr_bk=0 bw_util=0.0007903
n_activity=234 dram_eff=0.2393
bk0: 12a 70819i bk1: 16a 70811i bk2: 0a 70859i bk3: 0a 70860i bk4: 0a 70860i bk5: 0a 70860i bk6: 0a 70861i bk7: 0a 70861i bk8: 0a 70861i bk9: 0a 70861i bk10: 0a 70861i bk11: 0a 70861i bk12: 0a 70862i bk13: 0a 70862i bk14: 0a 70862i bk15: 0a 70862i 

------------------------------------------------------------------------

Row_Buffer_Locality = 0.928571
Row_Buffer_Locality_read = 0.928571
Row_Buffer_Locality_write = -nan
Bank_Level_Parallism = 1.000000
Bank_Level_Parallism_Col = 1.000000
Bank_Level_Parallism_Ready = 1.000000
write_to_read_ratio_blp_rw_average = 0.000000
GrpLevelPara = 1.000000 

BW Util details:
bwutil = 0.000790 
total_CMD = 70861 
util_bw = 56 
Wasted_Col = 74 
Wasted_Row = 0 
Idle = 70731 

BW Util Bottlenecks: 
RCDc_limit = 32 
RCDWRc_limit = 0 
WTRc_limit = 0 
RTWc_limit = 0 
CCDLc_limit = 42 
rwq = 0 
CCDLc_limit_alone = 42 
WTRc_limit_alone = 0 
RTWc_limit_alone = 0 

Commands details: 
total_CMD = 70861 
n_nop = 70831 
Read = 28 
Write = 0 
L2_Alloc = 0 
L2_WB = 0 
n_act = 2 
n_pre = 0 
n_ref = 0 
n_req = 28 
total_req = 28 

Dual Bus Interface Util: 
issued_total_row = 2 
issued_total_col = 28 
Row_Bus_Util =  0.000028 
CoL_Bus_Util = 0.000395 
Either_Row_CoL_Bus_Util = 0.000423 
Issued_on_Two_Bus_Simul_Util = 0.000000 
issued_two_Eff = 0.000000 
queue_avg = 0.001863 


dram_util_bins: 0 0 0 0 0 0 0 0 0 0
dram_eff_bins: 0 0 0 0 0 0 0 0 0 0
mrqq: max=3 avg=0.0018628

========= L2 cache stats =========
L2_cache_bank[0]: Access = 3836, Miss = 2756, Miss_rate = 0.718, Pending_hits = 492, Reservation_fails = 0
L2_cache_bank[1]: Access = 3772, Miss = 2754, Miss_rate = 0.730, Pending_hits = 407, Reservation_fails = 0
L2_cache_bank[2]: Access = 3836, Miss = 2756, Miss_rate = 0.718, Pending_hits = 548, Reservation_fails = 0
L2_cache_bank[3]: Access = 3772, Miss = 2754, Miss_rate = 0.730, Pending_hits = 437, Reservation_fails = 0
L2_cache_bank[4]: Access = 3708, Miss = 2752, Miss_rate = 0.742, Pending_hits = 413, Reservation_fails = 0
L2_cache_bank[5]: Access = 3708, Miss = 2752, Miss_rate = 0.742, Pending_hits = 376, Reservation_fails = 0
L2_cache_bank[6]: Access = 3708, Miss = 2752, Miss_rate = 0.742, Pending_hits = 338, Reservation_fails = 0
L2_cache_bank[7]: Access = 3708, Miss = 2752, Miss_rate = 0.742, Pending_hits = 380, Reservation_fails = 0
L2_cache_bank[8]: Access = 3704, Miss = 2748, Miss_rate = 0.742, Pending_hits = 321, Reservation_fails = 0
L2_cache_bank[9]: Access = 3704, Miss = 2748, Miss_rate = 0.742, Pending_hits = 377, Reservation_fails = 0
L2_cache_bank[10]: Access = 3704, Miss = 2748, Miss_rate = 0.742, Pending_hits = 188, Reservation_fails = 0
L2_cache_bank[11]: Access = 3704, Miss = 2748, Miss_rate = 0.742, Pending_hits = 230, Reservation_fails = 0
L2_cache_bank[12]: Access = 3704, Miss = 2748, Miss_rate = 0.742, Pending_hits = 222, Reservation_fails = 0
L2_cache_bank[13]: Access = 3704, Miss = 2748, Miss_rate = 0.742, Pending_hits = 370, Reservation_fails = 0
L2_cache_bank[14]: Access = 3704, Miss = 2748, Miss_rate = 0.742, Pending_hits = 249, Reservation_fails = 0
L2_cache_bank[15]: Access = 3704, Miss = 2748, Miss_rate = 0.742, Pending_hits = 265, Reservation_fails = 0
L2_cache_bank[16]: Access = 3724, Miss = 2752, Miss_rate = 0.739, Pending_hits = 241, Reservation_fails = 0
L2_cache_bank[17]: Access = 3596, Miss = 2748, Miss_rate = 0.764, Pending_hits = 222, Reservation_fails = 0
L2_cache_bank[18]: Access = 3724, Miss = 2752, Miss_rate = 0.739, Pending_hits = 261, Reservation_fails = 0
L2_cache_bank[19]: Access = 3596, Miss = 2748, Miss_rate = 0.764, Pending_hits = 195, Reservation_fails = 0
L2_cache_bank[20]: Access = 3596, Miss = 2748, Miss_rate = 0.764, Pending_hits = 222, Reservation_fails = 0
L2_cache_bank[21]: Access = 3468, Miss = 2744, Miss_rate = 0.791, Pending_hits = 207, Reservation_fails = 0
L2_cache_bank[22]: Access = 3468, Miss = 2744, Miss_rate = 0.791, Pending_hits = 215, Reservation_fails = 0
L2_cache_bank[23]: Access = 3596, Miss = 2748, Miss_rate = 0.764, Pending_hits = 239, Reservation_fails = 0
L2_total_cache_accesses = 88448
L2_total_cache_misses = 65996
L2_total_cache_miss_rate = 0.7462
L2_total_cache_pending_hits = 7415
L2_total_cache_reservation_fails = 0
L2_total_cache_breakdown:
	L2_cache_stats_breakdown[GLOBAL_ACC_R][HIT] = 8192
	L2_cache_stats_breakdown[GLOBAL_ACC_R][HIT_RESERVED] = 0
	L2_cache_stats_breakdown[GLOBAL_ACC_R][MISS] = 0
	L2_cache_stats_breakdown[GLOBAL_ACC_R][RESERVATION_FAIL] = 0
	L2_cache_stats_breakdown[GLOBAL_ACC_R][SECTOR_MISS] = 0
	L2_cache_stats_breakdown[LOCAL_ACC_R][HIT] = 0
	L2_cache_stats_breakdown[LOCAL_ACC_R][HIT_RESERVED] = 0
	L2_cache_stats_breakdown[LOCAL_ACC_R][MISS] = 0
	L2_cache_stats_breakdown[LOCAL_ACC_R][RESERVATION_FAIL] = 0
	L2_cache_stats_breakdown[LOCAL_ACC_R][SECTOR_MISS] = 0
	L2_cache_stats_breakdown[CONST_ACC_R][HIT] = 0
	L2_cache_stats_breakdown[CONST_ACC_R][HIT_RESERVED] = 372
	L2_cache_stats_breakdown[CONST_ACC_R][MISS] = 4
	L2_cache_stats_breakdown[CONST_ACC_R][RESERVATION_FAIL] = 0
	L2_cache_stats_breakdown[CONST_ACC_R][SECTOR_MISS] = 8
	L2_cache_stats_breakdown[TEXTURE_ACC_R][HIT] = 0
	L2_cache_stats_breakdown[TEXTURE_ACC_R][HIT_RESERVED] = 0
	L2_cache_stats_breakdown[TEXTURE_ACC_R][MISS] = 0
	L2_cache_stats_breakdown[TEXTURE_ACC_R][RESERVATION_FAIL] = 0
	L2_cache_stats_breakdown[TEXTURE_ACC_R][SECTOR_MISS] = 0
	L2_cache_stats_breakdown[GLOBAL_ACC_W][HIT] = 0
	L2_cache_stats_breakdown[GLOBAL_ACC_W][HIT_RESERVED] = 0
	L2_cache_stats_breakdown[GLOBAL_ACC_W][MISS] = 16384
	L2_cache_stats_breakdown[GLOBAL_ACC_W][RESERVATION_FAIL] = 0
	L2_cache_stats_breakdown[GLOBAL_ACC_W][SECTOR_MISS] = 49152
	L2_cache_stats_breakdown[LOCAL_ACC_W][HIT] = 0
	L2_cache_stats_breakdown[LOCAL_ACC_W][HIT_RESERVED] = 0
	L2_cache_stats_breakdown[LOCAL_ACC_W][MISS] = 0
	L2_cache_stats_breakdown[LOCAL_ACC_W][RESERVATION_FAIL] = 0
	L2_cache_stats_breakdown[LOCAL_ACC_W][SECTOR_MISS] = 0
	L2_cache_stats_breakdown[L1_WRBK_ACC][HIT] = 0
	L2_cache_stats_breakdown[L1_WRBK_ACC][HIT_RESERVED] = 0
	L2_cache_stats_breakdown[L1_WRBK_ACC][MISS] = 0
	L2_cache_stats_breakdown[L1_WRBK_ACC][RESERVATION_FAIL] = 0
	L2_cache_stats_breakdown[L1_WRBK_ACC][SECTOR_MISS] = 0
	L2_cache_stats_breakdown[L2_WRBK_ACC][HIT] = 0
	L2_cache_stats_breakdown[L2_WRBK_ACC][HIT_RESERVED] = 0
	L2_cache_stats_breakdown[L2_WRBK_ACC][MISS] = 0
	L2_cache_stats_breakdown[L2_WRBK_ACC][RESERVATION_FAIL] = 0
	L2_cache_stats_breakdown[L2_WRBK_ACC][SECTOR_MISS] = 0
	L2_cache_stats_breakdown[INST_ACC_R][HIT] = 6845
	L2_cache_stats_breakdown[INST_ACC_R][HIT_RESERVED] = 7043
	L2_cache_stats_breakdown[INST_ACC_R][MISS] = 112
	L2_cache_stats_breakdown[INST_ACC_R][RESERVATION_FAIL] = 0
	L2_cache_stats_breakdown[INST_ACC_R][SECTOR_MISS] = 336
	L2_cache_stats_breakdown[L1_WR_ALLOC_R][HIT] = 0
	L2_cache_stats_breakdown[L1_WR_ALLOC_R][HIT_RESERVED] = 0
	L2_cache_stats_breakdown[L1_WR_ALLOC_R][MISS] = 0
	L2_cache_stats_breakdown[L1_WR_ALLOC_R][RESERVATION_FAIL] = 0
	L2_cache_stats_breakdown[L1_WR_ALLOC_R][SECTOR_MISS] = 0
	L2_cache_stats_breakdown[L2_WR_ALLOC_R][HIT] = 0
	L2_cache_stats_breakdown[L2_WR_ALLOC_R][HIT_RESERVED] = 0
	L2_cache_stats_breakdown[L2_WR_ALLOC_R][MISS] = 0
	L2_cache_stats_breakdown[L2_WR_ALLOC_R][RESERVATION_FAIL] = 0
	L2_cache_stats_breakdown[L2_WR_ALLOC_R][SECTOR_MISS] = 0
	L2_cache_stats_breakdown[GLOBAL_ACC_R][TOTAL_ACCESS] = 8192
	L2_cache_stats_breakdown[CONST_ACC_R][TOTAL_ACCESS] = 384
	L2_cache_stats_breakdown[GLOBAL_ACC_W][TOTAL_ACCESS] = 65536
	L2_cache_stats_breakdown[INST_ACC_R][TOTAL_ACCESS] = 14336
L2_total_cache_reservation_fail_breakdown:
L2_cache_data_port_util = 0.016
L2_cache_fill_port_util = 0.000

icnt_total_pkts_mem_to_simt=88448
icnt_total_pkts_simt_to_mem=77504
LD_mem_lat_dist  0 0 0 0 0 0 0 0 0 0 0 0 0 0 0 0 0 0 0 0 0 0 0 0 0 0 0
ST_mem_lat_dist  0 0 0 0 0 0 0 0 0 0 0 0 0 0 0 0 0 0 0 0 0 0 0 0 0 0 0
----------------------------Interconnect-DETAILS--------------------------------
Class 0:
Packet latency average = 35.7358
	minimum = 5
	maximum = 354
Network latency average = 33.0951
	minimum = 5
	maximum = 340
Slowest packet = 2728
Flit latency average = 33.0951
	minimum = 5
	maximum = 340
Slowest flit = 7138
Fragmentation average = 0
	minimum = 0
	maximum = 0
Injected packet rate average = 0.0794569
	minimum = 0.0603013 (at node 4)
	maximum = 0.120603 (at node 0)
Accepted packet rate average = 0.0794569
	minimum = 0.0688161 (at node 4)
	maximum = 0.137632 (at node 0)
Injected flit rate average = 0.0794569
	minimum = 0.0603013 (at node 4)
	maximum = 0.120603 (at node 0)
Accepted flit rate average= 0.0794569
	minimum = 0.0688161 (at node 4)
	maximum = 0.137632 (at node 0)
Injected packet length average = 1
Accepted packet length average = 1
Total in-flight flits = 0 (0 measured)
====== Overall Traffic Statistics ======
====== Traffic class 0 ======
Packet latency average = 35.7358 (1 samples)
	minimum = 5 (1 samples)
	maximum = 354 (1 samples)
Network latency average = 33.0951 (1 samples)
	minimum = 5 (1 samples)
	maximum = 340 (1 samples)
Flit latency average = 33.0951 (1 samples)
	minimum = 5 (1 samples)
	maximum = 340 (1 samples)
Fragmentation average = 0 (1 samples)
	minimum = 0 (1 samples)
	maximum = 0 (1 samples)
Injected packet rate average = 0.0794569 (1 samples)
	minimum = 0.0603013 (1 samples)
	maximum = 0.120603 (1 samples)
Accepted packet rate average = 0.0794569 (1 samples)
	minimum = 0.0688161 (1 samples)
	maximum = 0.137632 (1 samples)
Injected flit rate average = 0.0794569 (1 samples)
	minimum = 0.0603013 (1 samples)
	maximum = 0.120603 (1 samples)
Accepted flit rate average = 0.0794569 (1 samples)
	minimum = 0.0688161 (1 samples)
	maximum = 0.137632 (1 samples)
Injected packet size average = 1 (1 samples)
Accepted packet size average = 1 (1 samples)
Hops average = 1 (1 samples)
----------------------------END-of-Interconnect-DETAILS-------------------------


gpgpu_simulation_time = 0 days, 0 hrs, 0 min, 39 sec (39 sec)
gpgpu_simulation_rate = 329150 (inst/sec)
gpgpu_simulation_rate = 1029 (cycle/sec)
gpgpu_silicon_slowdown = 1377065x
GPGPU-Sim: synchronize waiting for inactive GPU simulation
GPGPU-Sim API: Stream Manager State
GPGPU-Sim: detected inactive GPU simulation thread
Successfully Launched
Result Verified
GPGPU-Sim: *** exit detected ***
